REMARK  5 active torsions:
REMARK  status: ('A' for Active; 'I' for Inactive)
REMARK    1  A    between atoms: O_2  and  C_3 
REMARK    2  A    between atoms: C_8  and  N_19 
REMARK    3  A    between atoms: C_12  and  S_13 
REMARK       I    between atoms: N_19  and  C_20 
REMARK    4  A    between atoms: C_24  and  O_25 
REMARK    5  A    between atoms: C_27  and  O_28 
ROOT
HETATM    1  C   LIG     1       1.265  -2.538  -0.310  1.00  0.00     0.116 A 
HETATM    2  C   LIG     1       0.886  -1.502   0.588  1.00  0.00     0.017 A 
HETATM    3  C   LIG     1       1.910  -0.844   1.319  1.00  0.00    -0.041 A 
HETATM    4  C   LIG     1       1.586   0.311   2.253  1.00  0.00     0.042 C 
HETATM    5  C   LIG     1       1.129   1.560   1.481  1.00  0.00     0.034 C 
HETATM    6  C   LIG     1       0.195   1.238   0.294  1.00  0.00     0.119 C 
HETATM    7  C   LIG     1      -0.899   0.227   0.707  1.00  0.00    -0.020 C 
HETATM    8  C   LIG     1      -2.099   0.771   1.043  1.00  0.00     0.066 C 
HETATM    9  C   LIG     1      -3.395   0.128   1.340  1.00  0.00     0.189 C 
HETATM   10  C   LIG     1      -3.714  -1.310   1.211  1.00  0.00     0.050 C 
HETATM   11  C   LIG     1      -2.731  -2.217   1.091  1.00  0.00     0.023 C 
HETATM   12  C   LIG     1      -1.401  -2.127   0.950  1.00  0.00     0.014 C 
HETATM   13  C   LIG     1      -0.553  -1.096   0.746  1.00  0.00    -0.014 C 
HETATM   14  O   LIG     1      -4.282   0.885   1.730  1.00  0.00    -0.287 OA
HETATM   15  C   LIG     1       3.252  -1.239   1.176  1.00  0.00     0.047 A 
HETATM   16  C   LIG     1       3.624  -2.300   0.333  1.00  0.00     0.104 A 
HETATM   17  C   LIG     1       2.618  -2.964  -0.422  1.00  0.00     0.136 A 
ENDROOT
BRANCH   6  18
HETATM   18  N   LIG     1      -0.325   2.467  -0.317  1.00  0.00    -0.353 N 
HETATM   19  C   LIG     1       0.367   3.308  -1.100  1.00  0.00     0.214 C 
HETATM   20  C   LIG     1      -0.392   4.524  -1.618  1.00  0.00     0.117 C 
HETATM   21  O   LIG     1       1.547   3.141  -1.406  1.00  0.00    -0.274 OA
HETATM   22  H   LIG     1      -1.292   2.691  -0.133  1.00  0.00     0.163 HD
ENDBRANCH   6  18
BRANCH   1  23
HETATM   23  O   LIG     1       0.316  -3.092  -1.131  1.00  0.00    -0.352 OA
HETATM   24  C   LIG     1       0.201  -2.429  -2.380  1.00  0.00     0.210 C 
ENDBRANCH   1  23
BRANCH  10  25
HETATM   25  S   LIG     1      -5.371  -1.942   1.342  1.00  0.00    -0.130 SA
HETATM   26  C   LIG     1      -6.356  -0.896   0.233  1.00  0.00     0.095 C 
ENDBRANCH  10  25
BRANCH  16  27
HETATM   27  O   LIG     1       4.976  -2.580   0.314  1.00  0.00    -0.353 OA
HETATM   28  C   LIG     1       5.423  -3.870  -0.072  1.00  0.00     0.210 C 
ENDBRANCH  16  27
BRANCH  17  29
HETATM   29  O   LIG     1       2.973  -3.957  -1.307  1.00  0.00    -0.351 OA
HETATM   30  C   LIG     1       2.241  -5.174  -1.232  1.00  0.00     0.210 C 
ENDBRANCH  17  29
TORSDOF 5
