REMARK  5 active torsions:
REMARK  status: ('A' for Active; 'I' for Inactive)
REMARK    1  A    between atoms: O_2  and  C_3 
REMARK    2  A    between atoms: C_4  and  O_28 
REMARK    3  A    between atoms: C_9  and  N_24 
REMARK    4  A    between atoms: C_13  and  O_14 
REMARK    5  A    between atoms: C_20  and  O_21 
REMARK       I    between atoms: N_24  and  C_25 
ROOT
HETATM    1  C   LIG     1       2.320  -3.112  -0.549  1.00  0.00     0.136 A 
HETATM    2  C   LIG     1       3.320  -2.555   0.291  1.00  0.00     0.104 A 
HETATM    3  C   LIG     1       2.955  -1.506   1.168  1.00  0.00     0.047 A 
HETATM    4  C   LIG     1       1.637  -1.015   1.218  1.00  0.00    -0.041 A 
HETATM    5  C   LIG     1       1.319   0.125   2.174  1.00  0.00     0.042 C 
HETATM    6  C   LIG     1       1.024   1.434   1.424  1.00  0.00     0.034 C 
HETATM    7  C   LIG     1       0.174   1.231   0.150  1.00  0.00     0.119 C 
HETATM    8  C   LIG     1      -1.026   0.295   0.427  1.00  0.00    -0.020 C 
HETATM    9  C   LIG     1      -2.210   0.921   0.664  1.00  0.00     0.068 C 
HETATM   10  C   LIG     1      -3.572   0.373   0.823  1.00  0.00     0.205 C 
HETATM   11  C   LIG     1      -3.970  -1.043   0.719  1.00  0.00     0.118 C 
HETATM   12  C   LIG     1      -3.054  -2.029   0.618  1.00  0.00     0.042 C 
HETATM   13  C   LIG     1      -1.715  -2.025   0.548  1.00  0.00     0.016 C 
HETATM   14  C   LIG     1      -0.784  -1.051   0.442  1.00  0.00    -0.014 C 
HETATM   15  C   LIG     1       0.630  -1.559   0.378  1.00  0.00     0.017 A 
HETATM   16  C   LIG     1       1.005  -2.593  -0.523  1.00  0.00     0.116 A 
HETATM   17  O   LIG     1      -4.455   1.199   1.053  1.00  0.00    -0.285 OA
ENDROOT
BRANCH   7  18
HETATM   18  N   LIG     1      -0.192   2.520  -0.450  1.00  0.00    -0.353 N 
HETATM   19  C   LIG     1       0.631   3.330  -1.133  1.00  0.00     0.214 C 
HETATM   20  C   LIG     1       0.016   4.621  -1.663  1.00  0.00     0.117 C 
HETATM   21  O   LIG     1       1.817   3.080  -1.342  1.00  0.00    -0.274 OA
HETATM   22  H   LIG     1      -1.152   2.813  -0.343  1.00  0.00     0.163 HD
ENDBRANCH   7  18
BRANCH  16  23
HETATM   23  O   LIG     1       0.096  -3.113  -1.410  1.00  0.00    -0.352 OA
HETATM   24  C   LIG     1       0.006  -2.375  -2.618  1.00  0.00     0.210 C 
ENDBRANCH  16  23
BRANCH  11  25
HETATM   25  O   LIG     1      -5.336  -1.244   0.769  1.00  0.00    -0.352 OA
HETATM   26  C   LIG     1      -5.843  -2.568   0.653  1.00  0.00     0.210 C 
ENDBRANCH  11  25
BRANCH   2  27
HETATM   27  O   LIG     1       4.614  -3.024   0.196  1.00  0.00    -0.353 OA
HETATM   28  C   LIG     1       5.613  -2.468   1.039  1.00  0.00     0.210 C 
ENDBRANCH   2  27
BRANCH   1  29
HETATM   29  O   LIG     1       2.549  -4.128  -1.454  1.00  0.00    -0.351 OA
HETATM   30  C   LIG     1       3.425  -5.181  -1.079  1.00  0.00     0.210 C 
ENDBRANCH   1  29
TORSDOF 5
