REMARK  9 active torsions:
REMARK  status: ('A' for Active; 'I' for Inactive)
REMARK    1  A    between atoms: O_2  and  C_3 
REMARK    2  A    between atoms: C_3  and  C_4 
REMARK    3  A    between atoms: C_4  and  C_5 
REMARK    4  A    between atoms: C_10  and  O_11 
REMARK    5  A    between atoms: C_13  and  O_34 
REMARK    6  A    between atoms: C_14  and  O_15 
REMARK    7  A    between atoms: O_15  and  C_16 
REMARK    8  A    between atoms: C_16  and  C_17 
REMARK    9  A    between atoms: C_27  and  O_32 
ROOT
HETATM    1  C   LIG     1       0.742   1.010   0.253  1.00  0.00     0.029 C 
HETATM    2  C   LIG     1      -0.299   1.776  -0.595  1.00  0.00     0.014 C 
HETATM    3  C   LIG     1      -0.962   0.918  -1.683  1.00  0.00     0.040 C 
HETATM    4  C   LIG     1      -1.270  -0.482  -1.179  1.00  0.00    -0.041 A 
HETATM    5  C   LIG     1      -2.611  -0.838  -0.950  1.00  0.00     0.047 A 
HETATM    6  C   LIG     1      -2.963  -2.114  -0.477  1.00  0.00     0.104 A 
HETATM    7  C   LIG     1      -1.934  -3.070  -0.255  1.00  0.00     0.136 A 
HETATM    8  C   LIG     1      -0.574  -2.698  -0.439  1.00  0.00     0.117 A 
HETATM    9  C   LIG     1      -0.225  -1.405  -0.921  1.00  0.00     0.017 A 
HETATM   10  C   LIG     1       1.209  -1.015  -1.144  1.00  0.00    -0.016 C 
HETATM   11  C   LIG     1       1.905  -1.903  -1.887  1.00  0.00     0.016 C 
HETATM   12  C   LIG     1       3.193  -2.012  -2.240  1.00  0.00     0.042 C 
HETATM   13  C   LIG     1       4.258  -1.202  -2.075  1.00  0.00     0.118 C 
HETATM   14  C   LIG     1       4.119   0.146  -1.493  1.00  0.00     0.205 C 
HETATM   15  C   LIG     1       2.911   0.713  -0.860  1.00  0.00     0.066 C 
HETATM   16  C   LIG     1       1.685   0.169  -0.645  1.00  0.00    -0.038 C 
HETATM   17  O   LIG     1       5.106   0.881  -1.517  1.00  0.00    -0.285 OA
ENDROOT
BRANCH   8  18
HETATM   18  O   LIG     1       0.418  -3.601  -0.137  1.00  0.00    -0.343 OA
BRANCH  18  19
HETATM   19  C   LIG     1       0.653  -3.798   1.253  1.00  0.00     0.216 C 
BRANCH  19  20
HETATM   20  C   LIG     1       1.621  -2.780   1.824  1.00  0.00    -0.017 A 
HETATM   21  C   LIG     1       1.221  -1.869   2.824  1.00  0.00     0.125 A 
HETATM   22  N   LIG     1       2.053  -0.956   3.368  1.00  0.00    -0.272 NA
HETATM   23  C   LIG     1       3.326  -0.914   2.923  1.00  0.00     0.116 A 
HETATM   24  C   LIG     1       3.826  -1.775   1.927  1.00  0.00     0.020 A 
HETATM   25  C   LIG     1       2.955  -2.732   1.372  1.00  0.00     0.012 A 
ENDBRANCH  19  20
ENDBRANCH  18  19
ENDBRANCH   8  18
BRANCH   7  26
HETATM   26  O   LIG     1      -2.253  -4.348   0.139  1.00  0.00    -0.351 OA
HETATM   27  C   LIG     1      -1.811  -5.388  -0.723  1.00  0.00     0.210 C 
ENDBRANCH   7  26
BRANCH   6  28
HETATM   28  O   LIG     1      -4.318  -2.317  -0.304  1.00  0.00    -0.353 OA
HETATM   29  C   LIG     1      -4.774  -3.354   0.550  1.00  0.00     0.210 C 
ENDBRANCH   6  28
BRANCH   1  30
HETATM   30  C   LIG     1       1.447   1.937   1.284  1.00  0.00     0.120 C 
BRANCH  30  31
HETATM   31  C   LIG     1       0.511   2.486   2.363  1.00  0.00     0.259 C 
HETATM   32  O   LIG     1       0.277   3.692   2.452  1.00  0.00    -0.265 OA
BRANCH  31  33
HETATM   33  O   LIG     1       0.012   1.528   3.159  1.00  0.00    -0.326 OA
HETATM   34  C   LIG     1      -0.871   1.880   4.209  1.00  0.00     0.213 C 
ENDBRANCH  31  33
ENDBRANCH  30  31
ENDBRANCH   1  30
BRANCH  13  35
HETATM   35  O   LIG     1       5.550  -1.521  -2.448  1.00  0.00    -0.352 OA
HETATM   36  C   LIG     1       5.823  -2.833  -2.923  1.00  0.00     0.210 C 
ENDBRANCH  13  35
TORSDOF 9
