REMARK  9 active torsions:
REMARK  status: ('A' for Active; 'I' for Inactive)
REMARK    1  A    between atoms: C_2  and  O_3 
REMARK    2  A    between atoms: O_3  and  C_4 
REMARK    3  A    between atoms: C_5  and  O_6 
REMARK    4  A    between atoms: C_8  and  O_9 
REMARK    5  A    between atoms: C_15  and  N_18 
REMARK       I    between atoms: N_18  and  C_19 
REMARK    6  A    between atoms: C_19  and  C_20 
REMARK    7  A    between atoms: C_20  and  N_21 
REMARK       I    between atoms: N_21  and  C_22 
REMARK    8  A    between atoms: C_22  and  C_23 
REMARK    9  A    between atoms: C_33  and  O_34 
ROOT
HETATM    1  C   LIG     1       1.261  -1.500   0.922  1.00  0.00     0.116 A 
HETATM    2  C   LIG     1       0.786  -2.817   1.182  1.00  0.00     0.136 A 
HETATM    3  C   LIG     1       0.010  -3.502   0.212  1.00  0.00     0.104 A 
HETATM    4  C   LIG     1      -0.267  -2.861  -1.016  1.00  0.00     0.047 A 
HETATM    5  C   LIG     1       0.198  -1.561  -1.279  1.00  0.00    -0.041 A 
HETATM    6  C   LIG     1      -0.172  -0.909  -2.603  1.00  0.00     0.042 C 
HETATM    7  C   LIG     1      -1.174   0.241  -2.411  1.00  0.00     0.034 C 
HETATM    8  C   LIG     1      -0.877   1.112  -1.169  1.00  0.00     0.119 C 
HETATM    9  C   LIG     1       0.625   1.476  -1.096  1.00  0.00    -0.020 C 
HETATM   10  C   LIG     1       0.948   2.714  -1.556  1.00  0.00     0.068 C 
HETATM   11  C   LIG     1       0.974  -0.862  -0.318  1.00  0.00     0.017 A 
HETATM   12  C   LIG     1       1.481   0.522  -0.615  1.00  0.00    -0.014 C 
HETATM   13  C   LIG     1       2.811   0.669  -0.428  1.00  0.00     0.016 C 
HETATM   14  C   LIG     1       3.656   1.704  -0.523  1.00  0.00     0.042 C 
HETATM   15  C   LIG     1       3.502   2.977  -0.946  1.00  0.00     0.118 C 
HETATM   16  C   LIG     1       2.228   3.451  -1.517  1.00  0.00     0.205 C 
HETATM   17  O   LIG     1       2.208   4.580  -2.006  1.00  0.00    -0.285 OA
ENDROOT
BRANCH   8  18
HETATM   18  N   LIG     1      -1.783   2.266  -1.108  1.00  0.00    -0.351 N 
HETATM   19  C   LIG     1      -3.081   2.231  -0.770  1.00  0.00     0.235 C 
HETATM   20  O   LIG     1      -3.676   1.192  -0.480  1.00  0.00    -0.272 OA
HETATM   21  H   LIG     1      -1.382   3.167  -1.325  1.00  0.00     0.163 HD
BRANCH  19  22
HETATM   22  C   LIG     1      -3.817   3.576  -0.787  1.00  0.00     0.225 C 
BRANCH  22  23
HETATM   23  N   LIG     1      -4.986   3.595   0.090  1.00  0.00    -0.345 N 
HETATM   24  C   LIG     1      -4.956   3.811   1.415  1.00  0.00     0.325 C 
HETATM   25  O   LIG     1      -3.916   4.041   2.033  1.00  0.00    -0.263 OA
HETATM   26  H   LIG     1      -5.881   3.401  -0.337  1.00  0.00     0.163 HD
BRANCH  24  27
HETATM   27  C   LIG     1      -6.303   3.757   2.145  1.00  0.00     0.472 C 
HETATM   28  F   LIG     1      -7.113   4.690   1.642  1.00  0.00    -0.162 F 
HETATM   29  F   LIG     1      -6.853   2.556   1.968  1.00  0.00    -0.162 F 
HETATM   30  F   LIG     1      -6.130   3.978   3.449  1.00  0.00    -0.162 F 
ENDBRANCH  24  27
ENDBRANCH  22  23
ENDBRANCH  19  22
ENDBRANCH   8  18
BRANCH   1  31
HETATM   31  O   LIG     1       1.944  -0.769   1.874  1.00  0.00    -0.348 OA
BRANCH  31  32
HETATM   32  C   LIG     1       3.003  -1.408   2.578  1.00  0.00     0.171 C 
HETATM   33  C   LIG     1       4.062  -0.360   2.932  1.00  0.00     0.034 C 
ENDBRANCH  31  32
ENDBRANCH   1  31
BRANCH  15  34
HETATM   34  O   LIG     1       4.498   3.934  -0.926  1.00  0.00    -0.352 OA
HETATM   35  C   LIG     1       5.753   3.611  -0.340  1.00  0.00     0.210 C 
ENDBRANCH  15  34
BRANCH   3  36
HETATM   36  O   LIG     1      -0.482  -4.752   0.528  1.00  0.00    -0.353 OA
HETATM   37  C   LIG     1      -1.261  -5.447  -0.436  1.00  0.00     0.210 C 
ENDBRANCH   3  36
BRANCH   2  38
HETATM   38  O   LIG     1       1.021  -3.373   2.420  1.00  0.00    -0.351 OA
HETATM   39  C   LIG     1       1.593  -4.675   2.437  1.00  0.00     0.210 C 
ENDBRANCH   2  38
TORSDOF 9
