REMARK  7 active torsions:
REMARK  status: ('A' for Active; 'I' for Inactive)
REMARK    1  A    between atoms: C_2  and  C_3 
REMARK    2  A    between atoms: C_3  and  O_4 
REMARK    3  A    between atoms: O_4  and  C_5 
REMARK    4  A    between atoms: C_10  and  N_13 
REMARK       I    between atoms: N_13  and  C_14 
REMARK    5  A    between atoms: C_17  and  O_18 
REMARK    6  A    between atoms: C_20  and  O_21 
REMARK    7  A    between atoms: C_27  and  S_28 
ROOT
HETATM    1  C   LIG     1       2.851  -2.348   0.256  1.00  0.00     0.105 A 
HETATM    2  C   LIG     1       2.538  -1.262   1.090  1.00  0.00     0.047 A 
HETATM    3  C   LIG     1       1.216  -0.810   1.251  1.00  0.00    -0.041 A 
HETATM    4  C   LIG     1       0.956   0.369   2.174  1.00  0.00     0.042 C 
HETATM    5  C   LIG     1       0.536   1.626   1.394  1.00  0.00     0.034 C 
HETATM    6  C   LIG     1      -0.432   1.326   0.227  1.00  0.00     0.119 C 
HETATM    7  C   LIG     1      -1.558   0.366   0.675  1.00  0.00    -0.020 C 
HETATM    8  C   LIG     1      -2.728   0.964   1.024  1.00  0.00     0.066 C 
HETATM    9  C   LIG     1       1.805  -2.981  -0.472  1.00  0.00     0.136 A 
HETATM   10  C   LIG     1       0.473  -2.498  -0.343  1.00  0.00     0.116 A 
HETATM   11  C   LIG     1       0.153  -1.435   0.548  1.00  0.00     0.017 A 
HETATM   12  C   LIG     1      -1.266  -0.969   0.725  1.00  0.00    -0.014 C 
HETATM   13  C   LIG     1      -2.151  -1.962   0.959  1.00  0.00     0.014 C 
HETATM   14  C   LIG     1      -3.481  -1.995   1.125  1.00  0.00     0.023 C 
HETATM   15  C   LIG     1      -4.423  -1.048   1.251  1.00  0.00     0.050 C 
HETATM   16  C   LIG     1      -4.044   0.378   1.354  1.00  0.00     0.189 C 
HETATM   17  O   LIG     1      -4.892   1.176   1.749  1.00  0.00    -0.287 OA
ENDROOT
BRANCH   6  18
HETATM   18  N   LIG     1      -0.912   2.567  -0.391  1.00  0.00    -0.353 N 
HETATM   19  C   LIG     1      -0.201   3.369  -1.198  1.00  0.00     0.214 C 
HETATM   20  C   LIG     1      -0.920   4.608  -1.719  1.00  0.00     0.117 C 
HETATM   21  O   LIG     1       0.965   3.150  -1.523  1.00  0.00    -0.274 OA
HETATM   22  H   LIG     1      -1.866   2.833  -0.193  1.00  0.00     0.163 HD
ENDBRANCH   6  18
BRANCH  10  23
HETATM   23  O   LIG     1      -0.513  -3.025  -1.138  1.00  0.00    -0.352 OA
HETATM   24  C   LIG     1      -0.623  -2.375  -2.395  1.00  0.00     0.210 C 
ENDBRANCH  10  23
BRANCH  15  25
HETATM   25  S   LIG     1      -6.102  -1.609   1.421  1.00  0.00    -0.130 SA
HETATM   26  C   LIG     1      -7.065  -0.537   0.317  1.00  0.00     0.095 C 
ENDBRANCH  15  25
BRANCH   1  27
HETATM   27  O   LIG     1       4.191  -2.682   0.218  1.00  0.00    -0.345 OA
BRANCH  27  28
HETATM   28  C   LIG     1       4.587  -3.989  -0.169  1.00  0.00     0.202 C 
BRANCH  28  29
HETATM   29  C   LIG     1       6.001  -4.262   0.293  1.00  0.00    -0.011 C 
HETATM   30  C   LIG     1       7.021  -4.578  -0.519  1.00  0.00     0.009 C 
ENDBRANCH  28  29
ENDBRANCH  27  28
ENDBRANCH   1  27
BRANCH   9  31
HETATM   31  O   LIG     1       2.101  -4.000  -1.349  1.00  0.00    -0.351 OA
HETATM   32  C   LIG     1       1.326  -5.187  -1.237  1.00  0.00     0.210 C 
ENDBRANCH   9  31
TORSDOF 7
