REMARK  9 active torsions:
REMARK  status: ('A' for Active; 'I' for Inactive)
REMARK    1  A    between atoms: O_2  and  C_3 
REMARK    2  A    between atoms: C_3  and  C_4 
REMARK    3  A    between atoms: C_4  and  O_5 
REMARK    4  A    between atoms: O_5  and  C_6 
REMARK    5  A    between atoms: C_11  and  N_22 
REMARK    6  A    between atoms: C_15  and  O_16 
REMARK       I    between atoms: N_22  and  C_23 
REMARK    7  A    between atoms: C_23  and  O_24 
REMARK    8  A    between atoms: C_28  and  O_29 
REMARK    9  A    between atoms: C_31  and  O_32 
ROOT
HETATM    1  C   LIG     1       1.000  -1.966   0.150  1.00  0.00     0.116 A 
HETATM    2  C   LIG     1       0.699  -0.763   0.851  1.00  0.00     0.017 A 
HETATM    3  C   LIG     1       1.781  -0.032   1.410  1.00  0.00    -0.041 A 
HETATM    4  C   LIG     1       1.542   1.286   2.129  1.00  0.00     0.042 C 
HETATM    5  C   LIG     1       1.084   2.392   1.164  1.00  0.00     0.035 C 
HETATM    6  C   LIG     1       0.074   1.898   0.105  1.00  0.00     0.121 C 
HETATM    7  C   LIG     1      -1.026   1.024   0.751  1.00  0.00    -0.020 C 
HETATM    8  C   LIG     1      -2.197   1.663   1.018  1.00  0.00     0.068 C 
HETATM    9  C   LIG     1      -3.492   1.136   1.493  1.00  0.00     0.205 C 
HETATM   10  C   LIG     1      -3.827  -0.278   1.753  1.00  0.00     0.118 C 
HETATM   11  C   LIG     1      -2.885  -1.244   1.727  1.00  0.00     0.042 C 
HETATM   12  C   LIG     1      -1.571  -1.228   1.462  1.00  0.00     0.016 C 
HETATM   13  C   LIG     1      -0.715  -0.281   1.018  1.00  0.00    -0.014 C 
HETATM   14  O   LIG     1      -4.376   1.973   1.673  1.00  0.00    -0.285 OA
HETATM   15  C   LIG     1       3.102  -0.507   1.298  1.00  0.00     0.047 A 
HETATM   16  C   LIG     1       3.393  -1.727   0.645  1.00  0.00     0.104 A 
HETATM   17  C   LIG     1       2.319  -2.470   0.089  1.00  0.00     0.136 A 
ENDROOT
BRANCH   6  18
HETATM   18  N   LIG     1      -0.436   3.016  -0.696  1.00  0.00    -0.328 N 
HETATM   19  C   LIG     1       0.292   3.662  -1.682  1.00  0.00     0.360 C 
HETATM   20  O   LIG     1       1.446   3.406  -2.030  1.00  0.00    -0.239 OA
HETATM   21  H   LIG     1      -1.377   3.348  -0.542  1.00  0.00     0.165 HD
BRANCH  19  22
HETATM   22  O   LIG     1      -0.475   4.627  -2.208  1.00  0.00    -0.309 OA
HETATM   23  C   LIG     1       0.040   5.442  -3.246  1.00  0.00     0.215 C 
ENDBRANCH  19  22
ENDBRANCH   6  18
BRANCH   1  24
HETATM   24  O   LIG     1       0.018  -2.695  -0.481  1.00  0.00    -0.345 OA
BRANCH  24  25
HETATM   25  C   LIG     1      -0.509  -2.111  -1.671  1.00  0.00     0.202 C 
BRANCH  25  26
HETATM   26  C   LIG     1       0.310  -2.500  -2.915  1.00  0.00     0.193 C 
BRANCH  26  27
HETATM   27  O   LIG     1      -0.104  -3.745  -3.461  1.00  0.00    -0.394 OA
HETATM   28  C   LIG     1       0.406  -4.877  -2.776  1.00  0.00     0.201 C 
ENDBRANCH  26  27
ENDBRANCH  25  26
ENDBRANCH  24  25
ENDBRANCH   1  24
BRANCH  10  29
HETATM   29  O   LIG     1      -5.160  -0.490   2.048  1.00  0.00    -0.352 OA
HETATM   30  C   LIG     1      -5.610  -1.817   2.292  1.00  0.00     0.210 C 
ENDBRANCH  10  29
BRANCH  16  31
HETATM   31  O   LIG     1       4.682  -2.200   0.495  1.00  0.00    -0.353 OA
HETATM   32  C   LIG     1       5.756  -1.458   1.055  1.00  0.00     0.210 C 
ENDBRANCH  16  31
BRANCH  17  33
HETATM   33  O   LIG     1       2.480  -3.668  -0.575  1.00  0.00    -0.351 OA
HETATM   34  C   LIG     1       3.403  -4.609  -0.047  1.00  0.00     0.210 C 
ENDBRANCH  17  33
TORSDOF 9
