REMARK  7 active torsions:
REMARK  status: ('A' for Active; 'I' for Inactive)
REMARK    1  A    between atoms: C_2  and  O_3 
REMARK    2  A    between atoms: O_3  and  C_4 
REMARK    3  A    between atoms: C_9  and  N_20 
REMARK    4  A    between atoms: C_13  and  O_14 
REMARK       I    between atoms: N_20  and  C_21 
REMARK    5  A    between atoms: C_21  and  O_22 
REMARK    6  A    between atoms: C_26  and  O_27 
REMARK    7  A    between atoms: C_29  and  O_30 
ROOT
HETATM    1  C   LIG     1       1.604  -0.970   0.708  1.00  0.00     0.116 A 
HETATM    2  C   LIG     1       0.823  -0.234  -0.228  1.00  0.00     0.017 A 
HETATM    3  C   LIG     1      -0.182  -0.934  -0.948  1.00  0.00    -0.041 A 
HETATM    4  C   LIG     1      -1.088  -0.205  -1.929  1.00  0.00     0.042 C 
HETATM    5  C   LIG     1      -2.048   0.760  -1.214  1.00  0.00     0.035 C 
HETATM    6  C   LIG     1      -1.384   1.536  -0.055  1.00  0.00     0.121 C 
HETATM    7  C   LIG     1      -0.007   2.096  -0.480  1.00  0.00    -0.020 C 
HETATM    8  C   LIG     1       0.001   3.403  -0.856  1.00  0.00     0.068 C 
HETATM    9  C   LIG     1       1.125   4.302  -1.184  1.00  0.00     0.205 C 
HETATM   10  C   LIG     1       2.562   3.972  -1.130  1.00  0.00     0.118 C 
HETATM   11  C   LIG     1       2.991   2.710  -0.915  1.00  0.00     0.042 C 
HETATM   12  C   LIG     1       2.348   1.557  -0.682  1.00  0.00     0.016 C 
HETATM   13  C   LIG     1       1.054   1.232  -0.467  1.00  0.00    -0.014 C 
HETATM   14  O   LIG     1       0.815   5.444  -1.523  1.00  0.00    -0.285 OA
HETATM   15  C   LIG     1      -0.369  -2.316  -0.759  1.00  0.00     0.047 A 
HETATM   16  C   LIG     1       0.438  -3.054   0.137  1.00  0.00     0.104 A 
HETATM   17  C   LIG     1       1.450  -2.367   0.859  1.00  0.00     0.136 A 
ENDROOT
BRANCH   6  18
HETATM   18  N   LIG     1      -2.300   2.539   0.498  1.00  0.00    -0.328 N 
HETATM   19  C   LIG     1      -3.383   2.240   1.309  1.00  0.00     0.360 C 
HETATM   20  O   LIG     1      -3.736   1.120   1.680  1.00  0.00    -0.239 OA
HETATM   21  H   LIG     1      -2.146   3.515   0.296  1.00  0.00     0.165 HD
BRANCH  19  22
HETATM   22  O   LIG     1      -3.996   3.387   1.631  1.00  0.00    -0.309 OA
HETATM   23  C   LIG     1      -5.144   3.358   2.462  1.00  0.00     0.215 C 
ENDBRANCH  19  22
ENDBRANCH   6  18
BRANCH   1  24
HETATM   24  O   LIG     1       2.546  -0.353   1.498  1.00  0.00    -0.348 OA
BRANCH  24  25
HETATM   25  C   LIG     1       2.022   0.429   2.568  1.00  0.00     0.171 C 
HETATM   26  C   LIG     1       1.592  -0.456   3.745  1.00  0.00     0.034 C 
ENDBRANCH  24  25
ENDBRANCH   1  24
BRANCH  10  27
HETATM   27  O   LIG     1       3.392   5.055  -1.350  1.00  0.00    -0.352 OA
HETATM   28  C   LIG     1       4.801   4.867  -1.299  1.00  0.00     0.210 C 
ENDBRANCH  10  27
BRANCH  16  29
HETATM   29  O   LIG     1       0.251  -4.403   0.365  1.00  0.00    -0.353 OA
HETATM   30  C   LIG     1      -0.759  -5.090  -0.359  1.00  0.00     0.210 C 
ENDBRANCH  16  29
BRANCH  17  31
HETATM   31  O   LIG     1       2.292  -2.972   1.769  1.00  0.00    -0.351 OA
HETATM   32  C   LIG     1       2.797  -4.264   1.463  1.00  0.00     0.210 C 
ENDBRANCH  17  31
TORSDOF 7
