REMARK  8 active torsions:
REMARK  status: ('A' for Active; 'I' for Inactive)
REMARK    1  A    between atoms: C_2  and  C_3 
REMARK    2  A    between atoms: C_3  and  O_4 
REMARK    3  A    between atoms: O_4  and  C_5 
REMARK    4  A    between atoms: C_10  and  N_13 
REMARK       I    between atoms: N_13  and  C_14 
REMARK    5  A    between atoms: C_14  and  O_15 
REMARK    6  A    between atoms: C_18  and  O_19 
REMARK    7  A    between atoms: C_21  and  O_22 
REMARK    8  A    between atoms: C_28  and  S_29 
ROOT
HETATM    1  C   LIG     1      -2.156  -2.741   0.012  1.00  0.00     0.105 A 
HETATM    2  C   LIG     1      -1.829  -1.691  -0.861  1.00  0.00     0.047 A 
HETATM    3  C   LIG     1      -0.493  -1.283  -1.044  1.00  0.00    -0.041 A 
HETATM    4  C   LIG     1      -0.208  -0.154  -2.022  1.00  0.00     0.042 C 
HETATM    5  C   LIG     1       0.299   1.111  -1.310  1.00  0.00     0.035 C 
HETATM    6  C   LIG     1       1.299   0.814  -0.172  1.00  0.00     0.121 C 
HETATM    7  C   LIG     1       2.356  -0.223  -0.617  1.00  0.00    -0.020 C 
HETATM    8  C   LIG     1       3.541   0.295  -1.035  1.00  0.00     0.066 C 
HETATM    9  C   LIG     1      -1.125  -3.340   0.779  1.00  0.00     0.136 A 
HETATM   10  C   LIG     1       0.217  -2.933   0.607  1.00  0.00     0.116 A 
HETATM   11  C   LIG     1       0.562  -1.922  -0.336  1.00  0.00     0.017 A 
HETATM   12  C   LIG     1       1.993  -1.541  -0.594  1.00  0.00    -0.014 C 
HETATM   13  C   LIG     1       2.814  -2.591  -0.810  1.00  0.00     0.014 C 
HETATM   14  C   LIG     1       4.132  -2.703  -1.024  1.00  0.00     0.023 C 
HETATM   15  C   LIG     1       5.117  -1.815  -1.233  1.00  0.00     0.050 C 
HETATM   16  C   LIG     1       4.809  -0.376  -1.389  1.00  0.00     0.189 C 
HETATM   17  O   LIG     1       5.681   0.355  -1.855  1.00  0.00    -0.287 OA
ENDROOT
BRANCH   6  18
HETATM   18  N   LIG     1       1.865   2.054   0.368  1.00  0.00    -0.328 N 
HETATM   19  C   LIG     1       1.176   2.929   1.192  1.00  0.00     0.360 C 
HETATM   20  O   LIG     1       0.016   2.805   1.589  1.00  0.00    -0.239 OA
HETATM   21  H   LIG     1       2.817   2.303   0.144  1.00  0.00     0.165 HD
BRANCH  19  22
HETATM   22  O   LIG     1       1.989   3.950   1.496  1.00  0.00    -0.309 OA
HETATM   23  C   LIG     1       1.520   4.993   2.334  1.00  0.00     0.215 C 
ENDBRANCH  19  22
ENDBRANCH   6  18
BRANCH  10  24
HETATM   24  O   LIG     1       1.160  -3.535   1.405  1.00  0.00    -0.352 OA
HETATM   25  C   LIG     1       1.674  -2.700   2.434  1.00  0.00     0.210 C 
ENDBRANCH  10  24
BRANCH  15  26
HETATM   26  S   LIG     1       6.756  -2.473  -1.440  1.00  0.00    -0.130 SA
HETATM   27  C   LIG     1       7.817  -1.408  -0.423  1.00  0.00     0.095 C 
ENDBRANCH  15  26
BRANCH   1  28
HETATM   28  O   LIG     1      -3.482  -3.105   0.079  1.00  0.00    -0.345 OA
BRANCH  28  29
HETATM   29  C   LIG     1      -3.768  -4.498   0.075  1.00  0.00     0.202 C 
BRANCH  29  30
HETATM   30  C   LIG     1      -5.106  -4.753  -0.584  1.00  0.00    -0.011 C 
HETATM   31  C   LIG     1      -6.148  -5.350   0.014  1.00  0.00     0.009 C 
ENDBRANCH  29  30
ENDBRANCH  28  29
ENDBRANCH   1  28
BRANCH   9  32
HETATM   32  O   LIG     1      -1.393  -4.303   1.719  1.00  0.00    -0.351 OA
HETATM   33  C   LIG     1      -1.960  -3.786   2.914  1.00  0.00     0.210 C 
ENDBRANCH   9  32
TORSDOF 8
