REMARK  8 active torsions:
REMARK  status: ('A' for Active; 'I' for Inactive)
REMARK    1  A    between atoms: C_2  and  O_3 
REMARK    2  A    between atoms: O_3  and  C_4 
REMARK    3  A    between atoms: C_9  and  C_20 
REMARK    4  A    between atoms: C_13  and  O_14 
REMARK    5  A    between atoms: C_20  and  C_21 
REMARK    6  A    between atoms: C_21  and  O_22 
REMARK    7  A    between atoms: C_26  and  O_27 
REMARK    8  A    between atoms: C_29  and  O_30 
ROOT
HETATM    1  C   LIG     1       1.117  -1.173   0.524  1.00  0.00     0.116 A 
HETATM    2  C   LIG     1       0.414  -0.440  -0.472  1.00  0.00     0.017 A 
HETATM    3  C   LIG     1      -0.534  -1.133  -1.270  1.00  0.00    -0.041 A 
HETATM    4  C   LIG     1      -1.386  -0.397  -2.294  1.00  0.00     0.040 C 
HETATM    5  C   LIG     1      -2.404   0.547  -1.626  1.00  0.00     0.014 C 
HETATM    6  C   LIG     1      -1.828   1.303  -0.413  1.00  0.00     0.029 C 
HETATM    7  C   LIG     1      -0.430   1.880  -0.745  1.00  0.00    -0.038 C 
HETATM    8  C   LIG     1      -0.425   3.170  -1.171  1.00  0.00     0.066 C 
HETATM    9  C   LIG     1       0.702   4.087  -1.434  1.00  0.00     0.205 C 
HETATM   10  C   LIG     1       2.134   3.804  -1.220  1.00  0.00     0.118 C 
HETATM   11  C   LIG     1       2.572   2.560  -0.929  1.00  0.00     0.042 C 
HETATM   12  C   LIG     1       1.941   1.392  -0.748  1.00  0.00     0.016 C 
HETATM   13  C   LIG     1       0.640   1.035  -0.654  1.00  0.00    -0.016 C 
HETATM   14  O   LIG     1       0.398   5.201  -1.861  1.00  0.00    -0.285 OA
HETATM   15  C   LIG     1      -0.723  -2.517  -1.105  1.00  0.00     0.047 A 
HETATM   16  C   LIG     1       0.020  -3.256  -0.169  1.00  0.00     0.104 A 
HETATM   17  C   LIG     1       0.953  -2.579   0.664  1.00  0.00     0.136 A 
ENDROOT
BRANCH   6  18
HETATM   18  C   LIG     1      -2.862   2.281   0.209  1.00  0.00     0.120 C 
BRANCH  18  19
HETATM   19  C   LIG     1      -2.362   2.995   1.470  1.00  0.00     0.259 C 
HETATM   20  O   LIG     1      -2.287   4.223   1.520  1.00  0.00    -0.265 OA
BRANCH  19  21
HETATM   21  O   LIG     1      -2.035   2.146   2.457  1.00  0.00    -0.326 OA
HETATM   22  C   LIG     1      -1.524   2.656   3.676  1.00  0.00     0.213 C 
ENDBRANCH  19  21
ENDBRANCH  18  19
ENDBRANCH   6  18
BRANCH   1  23
HETATM   23  O   LIG     1       1.912  -0.495   1.414  1.00  0.00    -0.348 OA
BRANCH  23  24
HETATM   24  C   LIG     1       1.204  -0.007   2.543  1.00  0.00     0.171 C 
HETATM   25  C   LIG     1       2.100   0.973   3.301  1.00  0.00     0.034 C 
ENDBRANCH  23  24
ENDBRANCH   1  23
BRANCH  10  26
HETATM   26  O   LIG     1       2.951   4.907  -1.377  1.00  0.00    -0.352 OA
HETATM   27  C   LIG     1       4.350   4.764  -1.167  1.00  0.00     0.210 C 
ENDBRANCH  10  26
BRANCH  16  28
HETATM   28  O   LIG     1      -0.262  -4.607  -0.134  1.00  0.00    -0.353 OA
HETATM   29  C   LIG     1       0.733  -5.517   0.310  1.00  0.00     0.210 C 
ENDBRANCH  16  28
BRANCH  17  30
HETATM   30  O   LIG     1       1.620  -3.279   1.645  1.00  0.00    -0.351 OA
HETATM   31  C   LIG     1       3.022  -3.068   1.753  1.00  0.00     0.210 C 
ENDBRANCH  17  30
TORSDOF 8
