REMARK  7 active torsions:
REMARK  status: ('A' for Active; 'I' for Inactive)
REMARK    1  A    between atoms: O_2  and  C_3 
REMARK    2  A    between atoms: C_3  and  C_4 
REMARK    3  A    between atoms: C_4  and  C_5 
REMARK    4  A    between atoms: C_10  and  O_11 
REMARK    5  A    between atoms: C_12  and  O_27 
REMARK    6  A    between atoms: C_13  and  O_14 
REMARK    7  A    between atoms: C_20  and  S_25 
ROOT
HETATM    1  C   LIG     1       0.399   0.801   0.580  1.00  0.00     0.029 C 
HETATM    2  C   LIG     1       1.276   1.065   1.826  1.00  0.00     0.014 C 
HETATM    3  C   LIG     1       1.768  -0.220   2.513  1.00  0.00     0.040 C 
HETATM    4  C   LIG     1       2.210  -1.265   1.501  1.00  0.00    -0.041 A 
HETATM    5  C   LIG     1       3.582  -1.560   1.395  1.00  0.00     0.047 A 
HETATM    6  C   LIG     1       4.034  -2.509   0.466  1.00  0.00     0.102 A 
HETATM    7  C   LIG     1       3.126  -3.173  -0.381  1.00  0.00     0.135 A 
HETATM    8  C   LIG     1       1.744  -2.845  -0.308  1.00  0.00     0.116 A 
HETATM    9  C   LIG     1       1.264  -1.915   0.661  1.00  0.00     0.017 A 
HETATM   10  C   LIG     1      -0.204  -1.613   0.790  1.00  0.00    -0.016 C 
HETATM   11  C   LIG     1      -0.991  -2.708   0.860  1.00  0.00     0.014 C 
HETATM   12  C   LIG     1      -2.317  -2.890   0.939  1.00  0.00     0.023 C 
HETATM   13  C   LIG     1      -3.357  -2.061   1.117  1.00  0.00     0.050 C 
HETATM   14  C   LIG     1      -3.131  -0.628   1.406  1.00  0.00     0.189 C 
HETATM   15  C   LIG     1      -1.871   0.119   1.212  1.00  0.00     0.064 C 
HETATM   16  C   LIG     1      -0.633  -0.316   0.861  1.00  0.00    -0.038 C 
HETATM   17  O   LIG     1      -4.072   0.028   1.852  1.00  0.00    -0.287 OA
ENDROOT
BRANCH   1  18
HETATM   18  C   LIG     1      -0.191   2.105  -0.024  1.00  0.00     0.120 C 
BRANCH  18  19
HETATM   19  C   LIG     1       0.869   3.046  -0.600  1.00  0.00     0.259 C 
HETATM   20  O   LIG     1       1.125   4.125  -0.065  1.00  0.00    -0.265 OA
BRANCH  19  21
HETATM   21  O   LIG     1       1.448   2.561  -1.710  1.00  0.00    -0.326 OA
HETATM   22  C   LIG     1       2.458   3.314  -2.356  1.00  0.00     0.213 C 
ENDBRANCH  19  21
ENDBRANCH  18  19
ENDBRANCH   1  18
BRANCH   8  23
HETATM   23  O   LIG     1       0.867  -3.381  -1.218  1.00  0.00    -0.352 OA
HETATM   24  C   LIG     1       0.690  -2.568  -2.367  1.00  0.00     0.210 C 
ENDBRANCH   8  23
BRANCH  13  25
HETATM   25  S   LIG     1      -4.976  -2.798   1.123  1.00  0.00    -0.130 SA
HETATM   26  C   LIG     1      -5.995  -1.692   0.108  1.00  0.00     0.095 C 
ENDBRANCH  13  25
BRANCH   7  27
HETATM   27  O   LIG     1       3.670  -4.083  -1.266  1.00  0.00    -0.351 OA
HETATM   28  C   LIG     1       2.916  -5.246  -1.580  1.00  0.00     0.210 C 
ENDBRANCH   7  27
BRANCH   6  29
HETATM   29  O   LIG     1       5.368  -2.789   0.388  1.00  0.00    -0.358 OA
HETATM   30  H   LIG     1       5.554  -3.438  -0.273  1.00  0.00     0.217 HD
ENDBRANCH   6  29
TORSDOF 7
