REMARK  8 active torsions:
REMARK  status: ('A' for Active; 'I' for Inactive)
REMARK    1  A    between atoms: O_2  and  C_3 
REMARK       I    between atoms: C_3  and  N_4 
REMARK    2  A    between atoms: N_4  and  C_5 
REMARK    3  A    between atoms: C_10  and  O_11 
REMARK    4  A    between atoms: C_13  and  O_34 
REMARK    5  A    between atoms: C_14  and  O_15 
REMARK    6  A    between atoms: O_15  and  C_16 
REMARK    7  A    between atoms: C_16  and  C_17 
REMARK    8  A    between atoms: C_27  and  O_32 
ROOT
HETATM    1  C   LIG     1       0.467   0.857   0.314  1.00  0.00     0.121 C 
HETATM    2  C   LIG     1      -0.674   1.555  -0.459  1.00  0.00     0.035 C 
HETATM    3  C   LIG     1      -1.301   0.670  -1.546  1.00  0.00     0.042 C 
HETATM    4  C   LIG     1      -1.438  -0.774  -1.089  1.00  0.00    -0.041 A 
HETATM    5  C   LIG     1      -2.723  -1.279  -0.823  1.00  0.00     0.047 A 
HETATM    6  C   LIG     1      -2.919  -2.601  -0.390  1.00  0.00     0.104 A 
HETATM    7  C   LIG     1      -1.788  -3.450  -0.245  1.00  0.00     0.136 A 
HETATM    8  C   LIG     1      -0.482  -2.928  -0.460  1.00  0.00     0.117 A 
HETATM    9  C   LIG     1      -0.292  -1.591  -0.910  1.00  0.00     0.017 A 
HETATM   10  C   LIG     1       1.084  -1.048  -1.176  1.00  0.00    -0.014 C 
HETATM   11  C   LIG     1       1.839  -1.836  -1.972  1.00  0.00     0.016 C 
HETATM   12  C   LIG     1       3.114  -1.794  -2.382  1.00  0.00     0.042 C 
HETATM   13  C   LIG     1       4.092  -0.875  -2.240  1.00  0.00     0.118 C 
HETATM   14  C   LIG     1       3.837   0.430  -1.599  1.00  0.00     0.205 C 
HETATM   15  C   LIG     1       2.609   0.841  -0.891  1.00  0.00     0.068 C 
HETATM   16  C   LIG     1       1.456   0.161  -0.652  1.00  0.00    -0.020 C 
HETATM   17  O   LIG     1       4.738   1.268  -1.637  1.00  0.00    -0.285 OA
ENDROOT
BRANCH   8  18
HETATM   18  O   LIG     1       0.617  -3.719  -0.216  1.00  0.00    -0.343 OA
BRANCH  18  19
HETATM   19  C   LIG     1       0.894  -3.968   1.158  1.00  0.00     0.216 C 
BRANCH  19  20
HETATM   20  C   LIG     1       1.568  -2.793   1.841  1.00  0.00    -0.017 A 
HETATM   21  C   LIG     1       0.924  -2.082   2.874  1.00  0.00     0.125 A 
HETATM   22  N   LIG     1       1.488  -1.037   3.517  1.00  0.00    -0.272 NA
HETATM   23  C   LIG     1       2.729  -0.659   3.143  1.00  0.00     0.116 A 
HETATM   24  C   LIG     1       3.459  -1.300   2.123  1.00  0.00     0.020 A 
HETATM   25  C   LIG     1       2.866  -2.394   1.463  1.00  0.00     0.012 A 
ENDBRANCH  19  20
ENDBRANCH  18  19
ENDBRANCH   8  18
BRANCH   7  26
HETATM   26  O   LIG     1      -1.961  -4.771   0.099  1.00  0.00    -0.351 OA
HETATM   27  C   LIG     1      -1.420  -5.723  -0.808  1.00  0.00     0.210 C 
ENDBRANCH   7  26
BRANCH   6  28
HETATM   28  O   LIG     1      -4.236  -2.957  -0.176  1.00  0.00    -0.353 OA
HETATM   29  C   LIG     1      -4.538  -4.037   0.695  1.00  0.00     0.210 C 
ENDBRANCH   6  28
BRANCH   1  30
HETATM   30  N   LIG     1       1.095   1.780   1.265  1.00  0.00    -0.328 N 
HETATM   31  C   LIG     1       0.515   2.183   2.456  1.00  0.00     0.360 C 
HETATM   32  O   LIG     1      -0.596   1.860   2.880  1.00  0.00    -0.239 OA
HETATM   33  H   LIG     1       2.021   2.132   1.074  1.00  0.00     0.165 HD
BRANCH  31  34
HETATM   34  O   LIG     1       1.377   2.987   3.092  1.00  0.00    -0.309 OA
HETATM   35  C   LIG     1       1.033   3.518   4.360  1.00  0.00     0.215 C 
ENDBRANCH  31  34
ENDBRANCH   1  30
BRANCH  13  36
HETATM   36  O   LIG     1       5.388  -1.032  -2.693  1.00  0.00    -0.352 OA
HETATM   37  C   LIG     1       5.770  -2.277  -3.266  1.00  0.00     0.210 C 
ENDBRANCH  13  36
TORSDOF 8
