REMARK  6 active torsions:
REMARK  status: ('A' for Active; 'I' for Inactive)
REMARK    1  A    between atoms: C_2  and  O_3 
REMARK    2  A    between atoms: O_3  and  C_4 
REMARK    3  A    between atoms: C_9  and  N_12 
REMARK       I    between atoms: N_12  and  C_13 
REMARK    4  A    between atoms: C_16  and  O_17 
REMARK    5  A    between atoms: C_19  and  O_20 
REMARK    6  A    between atoms: C_26  and  S_27 
ROOT
HETATM    1  C   LIG     1      -2.570  -2.440   0.043  1.00  0.00     0.105 A 
HETATM    2  C   LIG     1      -2.320  -1.296  -0.733  1.00  0.00     0.047 A 
HETATM    3  C   LIG     1      -1.011  -0.812  -0.919  1.00  0.00    -0.041 A 
HETATM    4  C   LIG     1      -0.810   0.418  -1.790  1.00  0.00     0.042 C 
HETATM    5  C   LIG     1      -0.331   1.630  -0.975  1.00  0.00     0.034 C 
HETATM    6  C   LIG     1       0.722   1.270   0.095  1.00  0.00     0.119 C 
HETATM    7  C   LIG     1       1.804   0.331  -0.485  1.00  0.00    -0.020 C 
HETATM    8  C   LIG     1       2.949   0.940  -0.892  1.00  0.00     0.066 C 
HETATM    9  C   LIG     1      -1.487  -3.063   0.713  1.00  0.00     0.136 A 
HETATM   10  C   LIG     1      -0.171  -2.580   0.538  1.00  0.00     0.116 A 
HETATM   11  C   LIG     1       0.096  -1.468  -0.312  1.00  0.00     0.017 A 
HETATM   12  C   LIG     1       1.499  -0.999  -0.579  1.00  0.00    -0.014 C 
HETATM   13  C   LIG     1       2.356  -1.984  -0.922  1.00  0.00     0.014 C 
HETATM   14  C   LIG     1       3.669  -2.014  -1.190  1.00  0.00     0.023 C 
HETATM   15  C   LIG     1       4.606  -1.065  -1.345  1.00  0.00     0.050 C 
HETATM   16  C   LIG     1       4.231   0.365  -1.351  1.00  0.00     0.189 C 
HETATM   17  O   LIG     1       5.052   1.178  -1.773  1.00  0.00    -0.287 OA
ENDROOT
BRANCH   6  18
HETATM   18  N   LIG     1       1.257   2.478   0.736  1.00  0.00    -0.353 N 
HETATM   19  C   LIG     1       0.616   3.239   1.636  1.00  0.00     0.214 C 
HETATM   20  C   LIG     1       1.381   4.449   2.160  1.00  0.00     0.117 C 
HETATM   21  O   LIG     1      -0.522   3.005   2.040  1.00  0.00    -0.274 OA
HETATM   22  H   LIG     1       2.194   2.751   0.477  1.00  0.00     0.163 HD
ENDBRANCH   6  18
BRANCH  10  23
HETATM   23  O   LIG     1       0.827  -3.213   1.240  1.00  0.00    -0.352 OA
HETATM   24  C   LIG     1       1.337  -2.462   2.334  1.00  0.00     0.210 C 
ENDBRANCH  10  23
BRANCH  15  25
HETATM   25  S   LIG     1       6.263  -1.624  -1.669  1.00  0.00    -0.130 SA
HETATM   26  C   LIG     1       7.314  -0.612  -0.591  1.00  0.00     0.095 C 
ENDBRANCH  15  25
BRANCH   1  27
HETATM   27  O   LIG     1      -3.875  -2.870   0.118  1.00  0.00    -0.349 OA
BRANCH  27  28
HETATM   28  C   LIG     1      -4.100  -4.268  -0.028  1.00  0.00     0.171 C 
HETATM   29  C   LIG     1      -5.478  -4.474  -0.660  1.00  0.00     0.034 C 
ENDBRANCH  27  28
ENDBRANCH   1  27
BRANCH   9  30
HETATM   30  O   LIG     1      -1.678  -4.123   1.563  1.00  0.00    -0.351 OA
HETATM   31  C   LIG     1      -2.234  -3.754   2.816  1.00  0.00     0.210 C 
ENDBRANCH   9  30
TORSDOF 6
