REMARK  5 active torsions:
REMARK  status: ('A' for Active; 'I' for Inactive)
REMARK    1  A    between atoms: O_2  and  C_3 
REMARK    2  A    between atoms: C_8  and  N_19 
REMARK    3  A    between atoms: C_12  and  S_13 
REMARK       I    between atoms: N_19  and  C_20 
REMARK    4  A    between atoms: C_24  and  O_25 
REMARK    5  A    between atoms: C_26  and  O_27 
ROOT
HETATM    1  C   LIG     1       1.659  -2.784   0.030  1.00  0.00     0.116 A 
HETATM    2  C   LIG     1       1.331  -1.652   0.830  1.00  0.00     0.017 A 
HETATM    3  C   LIG     1       2.378  -1.027   1.563  1.00  0.00    -0.041 A 
HETATM    4  C   LIG     1       2.112   0.214   2.400  1.00  0.00     0.042 C 
HETATM    5  C   LIG     1       1.787   1.436   1.525  1.00  0.00     0.034 C 
HETATM    6  C   LIG     1       0.876   1.103   0.322  1.00  0.00     0.119 C 
HETATM    7  C   LIG     1      -0.311   0.213   0.756  1.00  0.00    -0.020 C 
HETATM    8  C   LIG     1      -1.475   0.872   0.999  1.00  0.00     0.066 C 
HETATM    9  C   LIG     1      -2.830   0.354   1.280  1.00  0.00     0.189 C 
HETATM   10  C   LIG     1      -3.259  -1.061   1.232  1.00  0.00     0.050 C 
HETATM   11  C   LIG     1      -2.348  -2.047   1.220  1.00  0.00     0.023 C 
HETATM   12  C   LIG     1      -1.011  -2.071   1.135  1.00  0.00     0.014 C 
HETATM   13  C   LIG     1      -0.075  -1.127   0.899  1.00  0.00    -0.014 C 
HETATM   14  O   LIG     1      -3.668   1.204   1.578  1.00  0.00    -0.287 OA
HETATM   15  C   LIG     1       3.687  -1.547   1.529  1.00  0.00     0.047 A 
HETATM   16  C   LIG     1       3.987  -2.686   0.764  1.00  0.00     0.102 A 
HETATM   17  C   LIG     1       2.975  -3.298  -0.011  1.00  0.00     0.135 A 
ENDROOT
BRANCH   6  18
HETATM   18  N   LIG     1       0.481   2.323  -0.393  1.00  0.00    -0.353 N 
HETATM   19  C   LIG     1       1.268   3.048  -1.202  1.00  0.00     0.214 C 
HETATM   20  C   LIG     1       0.630   4.280  -1.834  1.00  0.00     0.117 C 
HETATM   21  O   LIG     1       2.440   2.766  -1.446  1.00  0.00    -0.274 OA
HETATM   22  H   LIG     1      -0.471   2.635  -0.266  1.00  0.00     0.163 HD
ENDBRANCH   6  18
BRANCH   1  23
HETATM   23  O   LIG     1       0.712  -3.389  -0.758  1.00  0.00    -0.352 OA
HETATM   24  C   LIG     1       0.575  -2.784  -2.033  1.00  0.00     0.210 C 
ENDBRANCH   1  23
BRANCH  10  25
HETATM   25  S   LIG     1      -4.966  -1.550   1.328  1.00  0.00    -0.130 SA
HETATM   26  C   LIG     1      -5.817  -0.510   0.108  1.00  0.00     0.095 C 
ENDBRANCH  10  25
BRANCH  16  27
HETATM   27  O   LIG     1       5.256  -3.186   0.808  1.00  0.00    -0.358 OA
HETATM   28  H   LIG     1       5.346  -3.988   0.316  1.00  0.00     0.217 HD
ENDBRANCH  16  27
BRANCH  17  29
HETATM   29  O   LIG     1       3.204  -4.402  -0.800  1.00  0.00    -0.351 OA
HETATM   30  C   LIG     1       4.252  -4.285  -1.754  1.00  0.00     0.210 C 
ENDBRANCH  17  29
TORSDOF 5
