REMARK  10 active torsions:
REMARK  status: ('A' for Active; 'I' for Inactive)
REMARK    1  A    between atoms: C_2  and  C_3 
REMARK    2  A    between atoms: C_3  and  O_4 
REMARK    3  A    between atoms: O_4  and  C_5 
REMARK    4  A    between atoms: C_10  and  N_13 
REMARK       I    between atoms: N_13  and  C_14 
REMARK    5  A    between atoms: C_14  and  C_15 
REMARK    6  A    between atoms: C_15  and  N_16 
REMARK       I    between atoms: N_16  and  C_17 
REMARK    7  A    between atoms: C_17  and  C_18 
REMARK    8  A    between atoms: C_24  and  O_25 
REMARK    9  A    between atoms: C_27  and  O_28 
REMARK   10  A    between atoms: C_34  and  S_35 
ROOT
HETATM    1  C   LIG     1      -1.686  -3.482   0.587  1.00  0.00     0.105 A 
HETATM    2  C   LIG     1      -1.346  -2.699  -0.539  1.00  0.00     0.047 A 
HETATM    3  C   LIG     1      -0.004  -2.421  -0.853  1.00  0.00    -0.041 A 
HETATM    4  C   LIG     1       0.292  -1.538  -2.056  1.00  0.00     0.042 C 
HETATM    5  C   LIG     1       0.834  -0.163  -1.635  1.00  0.00     0.034 C 
HETATM    6  C   LIG     1       1.835  -0.234  -0.459  1.00  0.00     0.119 C 
HETATM    7  C   LIG     1       2.871  -1.360  -0.684  1.00  0.00    -0.020 C 
HETATM    8  C   LIG     1       4.066  -0.959  -1.196  1.00  0.00     0.066 C 
HETATM    9  C   LIG     1      -0.645  -4.003   1.398  1.00  0.00     0.136 A 
HETATM   10  C   LIG     1       0.714  -3.725   1.083  1.00  0.00     0.116 A 
HETATM   11  C   LIG     1       1.049  -2.932  -0.050  1.00  0.00     0.017 A 
HETATM   12  C   LIG     1       2.482  -2.641  -0.401  1.00  0.00    -0.014 C 
HETATM   13  C   LIG     1       3.272  -3.735  -0.456  1.00  0.00     0.014 C 
HETATM   14  C   LIG     1       4.585  -3.920  -0.655  1.00  0.00     0.023 C 
HETATM   15  C   LIG     1       5.594  -3.104  -1.000  1.00  0.00     0.050 C 
HETATM   16  C   LIG     1       5.322  -1.708  -1.404  1.00  0.00     0.189 C 
HETATM   17  O   LIG     1       6.218  -1.085  -1.973  1.00  0.00    -0.287 OA
ENDROOT
BRANCH   6  18
HETATM   18  N   LIG     1       2.427   1.083  -0.192  1.00  0.00    -0.351 N 
HETATM   19  C   LIG     1       1.803   2.122   0.385  1.00  0.00     0.235 C 
HETATM   20  O   LIG     1       0.638   2.076   0.783  1.00  0.00    -0.272 OA
HETATM   21  H   LIG     1       3.388   1.212  -0.470  1.00  0.00     0.163 HD
BRANCH  19  22
HETATM   22  C   LIG     1       2.637   3.398   0.556  1.00  0.00     0.225 C 
BRANCH  22  23
HETATM   23  N   LIG     1       1.821   4.609   0.571  1.00  0.00    -0.345 N 
HETATM   24  C   LIG     1       1.340   5.232  -0.518  1.00  0.00     0.325 C 
HETATM   25  O   LIG     1       1.563   4.842  -1.665  1.00  0.00    -0.263 OA
HETATM   26  H   LIG     1       1.579   4.987   1.476  1.00  0.00     0.163 HD
BRANCH  24  27
HETATM   27  C   LIG     1       0.480   6.476  -0.268  1.00  0.00     0.472 C 
HETATM   28  F   LIG     1      -0.579   6.139   0.469  1.00  0.00    -0.162 F 
HETATM   29  F   LIG     1       1.202   7.385   0.389  1.00  0.00    -0.162 F 
HETATM   30  F   LIG     1       0.067   6.991  -1.427  1.00  0.00    -0.162 F 
ENDBRANCH  24  27
ENDBRANCH  22  23
ENDBRANCH  19  22
ENDBRANCH   6  18
BRANCH  10  31
HETATM   31  O   LIG     1       1.739  -4.147   1.904  1.00  0.00    -0.352 OA
HETATM   32  C   LIG     1       1.760  -5.524   2.260  1.00  0.00     0.210 C 
ENDBRANCH  10  31
BRANCH  15  33
HETATM   33  S   LIG     1       7.216  -3.828  -1.078  1.00  0.00    -0.130 SA
HETATM   34  C   LIG     1       8.298  -2.634  -0.243  1.00  0.00     0.095 C 
ENDBRANCH  15  33
BRANCH   1  35
HETATM   35  O   LIG     1      -2.994  -3.722   0.961  1.00  0.00    -0.345 OA
BRANCH  35  36
HETATM   36  C   LIG     1      -4.048  -3.215   0.157  1.00  0.00     0.202 C 
BRANCH  36  37
HETATM   37  C   LIG     1      -5.385  -3.643   0.721  1.00  0.00    -0.011 C 
HETATM   38  C   LIG     1      -6.352  -2.799   1.112  1.00  0.00     0.009 C 
ENDBRANCH  36  37
ENDBRANCH  35  36
ENDBRANCH   1  35
BRANCH   9  39
HETATM   39  O   LIG     1      -0.917  -4.715   2.546  1.00  0.00    -0.351 OA
HETATM   40  C   LIG     1      -1.821  -5.806   2.431  1.00  0.00     0.210 C 
ENDBRANCH   9  39
TORSDOF 10
