REMARK  8 active torsions:
REMARK  status: ('A' for Active; 'I' for Inactive)
REMARK    1  A    between atoms: C_2  and  O_3 
REMARK    2  A    between atoms: C_2  and  O_28 
REMARK    3  A    between atoms: O_3  and  C_4 
REMARK    4  A    between atoms: C_4  and  C_5 
REMARK    5  A    between atoms: C_9  and  O_10 
REMARK    6  A    between atoms: C_11  and  O_26 
REMARK    7  A    between atoms: C_12  and  O_13 
REMARK    8  A    between atoms: C_19  and  S_24 
ROOT
HETATM    1  C   LIG     1       1.524   0.623  -0.427  1.00  0.00     0.048 C 
HETATM    2  C   LIG     1       2.528  -0.193  -1.250  1.00  0.00     0.051 C 
HETATM    3  C   LIG     1       2.577  -1.617  -0.757  1.00  0.00    -0.041 A 
HETATM    4  C   LIG     1       3.801  -2.308  -0.765  1.00  0.00     0.047 A 
HETATM    5  C   LIG     1       3.866  -3.624  -0.286  1.00  0.00     0.102 A 
HETATM    6  C   LIG     1       2.715  -4.257   0.222  1.00  0.00     0.135 A 
HETATM    7  C   LIG     1       1.486  -3.537   0.267  1.00  0.00     0.116 A 
HETATM    8  C   LIG     1       1.391  -2.219  -0.278  1.00  0.00     0.017 A 
HETATM    9  C   LIG     1       0.107  -1.435  -0.340  1.00  0.00    -0.016 C 
HETATM   10  C   LIG     1      -1.020  -2.153  -0.536  1.00  0.00     0.014 C 
HETATM   11  C   LIG     1      -2.327  -1.856  -0.498  1.00  0.00     0.023 C 
HETATM   12  C   LIG     1      -3.019  -0.730  -0.260  1.00  0.00     0.050 C 
HETATM   13  C   LIG     1      -2.322   0.556  -0.042  1.00  0.00     0.189 C 
HETATM   14  C   LIG     1      -0.873   0.803  -0.184  1.00  0.00     0.064 C 
HETATM   15  C   LIG     1       0.159  -0.071  -0.310  1.00  0.00    -0.037 C 
HETATM   16  O   LIG     1      -2.993   1.530   0.296  1.00  0.00    -0.287 OA
ENDROOT
BRANCH   1  17
HETATM   17  C   LIG     1       2.073   0.977   0.974  1.00  0.00     0.190 C 
BRANCH  17  18
HETATM   18  O   LIG     1       3.154   1.897   0.901  1.00  0.00    -0.297 OA
BRANCH  18  19
HETATM   19  C   LIG     1       2.917   3.217   0.825  1.00  0.00     0.406 C 
HETATM   20  O   LIG     1       1.812   3.764   0.804  1.00  0.00    -0.230 OA
BRANCH  19  21
HETATM   21  O   LIG     1       4.109   3.825   0.771  1.00  0.00    -0.303 OA
HETATM   22  C   LIG     1       4.165   5.238   0.681  1.00  0.00     0.215 C 
ENDBRANCH  19  21
ENDBRANCH  18  19
ENDBRANCH  17  18
ENDBRANCH   1  17
BRANCH   7  23
HETATM   23  O   LIG     1       0.411  -4.098   0.908  1.00  0.00    -0.352 OA
HETATM   24  C   LIG     1       0.316  -3.722   2.273  1.00  0.00     0.210 C 
ENDBRANCH   7  23
BRANCH  12  25
HETATM   25  S   LIG     1      -4.790  -0.879  -0.201  1.00  0.00    -0.130 SA
HETATM   26  C   LIG     1      -5.395   0.385  -1.354  1.00  0.00     0.095 C 
ENDBRANCH  12  25
BRANCH   5  27
HETATM   27  O   LIG     1       5.057  -4.291  -0.309  1.00  0.00    -0.358 OA
HETATM   28  H   LIG     1       4.980  -5.164   0.046  1.00  0.00     0.217 HD
ENDBRANCH   5  27
BRANCH   6  29
HETATM   29  O   LIG     1       2.883  -5.544   0.691  1.00  0.00    -0.351 OA
HETATM   30  C   LIG     1       1.823  -6.471   0.499  1.00  0.00     0.210 C 
ENDBRANCH   6  29
TORSDOF 8
