REMARK  11 active torsions:
REMARK  status: ('A' for Active; 'I' for Inactive)
REMARK    1  A    between atoms: O_2  and  C_3 
REMARK    2  A    between atoms: C_3  and  C_4 
REMARK    3  A    between atoms: C_4  and  O_5 
REMARK    4  A    between atoms: O_5  and  C_6 
REMARK    5  A    between atoms: C_11  and  N_22 
REMARK    6  A    between atoms: C_15  and  O_16 
REMARK       I    between atoms: N_22  and  C_23 
REMARK    7  A    between atoms: C_23  and  C_24 
REMARK    8  A    between atoms: C_24  and  N_25 
REMARK       I    between atoms: N_25  and  C_26 
REMARK    9  A    between atoms: C_26  and  C_27 
REMARK   10  A    between atoms: C_34  and  O_35 
REMARK   11  A    between atoms: C_37  and  O_38 
ROOT
HETATM    1  C   LIG     1      -0.564  -2.618   0.303  1.00  0.00     0.116 A 
HETATM    2  C   LIG     1      -0.232  -1.848  -0.849  1.00  0.00     0.017 A 
HETATM    3  C   LIG     1      -1.294  -1.409  -1.682  1.00  0.00    -0.041 A 
HETATM    4  C   LIG     1      -1.022  -0.534  -2.897  1.00  0.00     0.042 C 
HETATM    5  C   LIG     1      -0.539   0.870  -2.498  1.00  0.00     0.034 C 
HETATM    6  C   LIG     1       0.457   0.861  -1.317  1.00  0.00     0.119 C 
HETATM    7  C   LIG     1       1.536  -0.230  -1.510  1.00  0.00    -0.020 C 
HETATM    8  C   LIG     1       2.721   0.205  -2.015  1.00  0.00     0.068 C 
HETATM    9  C   LIG     1       4.004  -0.503  -2.200  1.00  0.00     0.205 C 
HETATM   10  C   LIG     1       4.305  -1.896  -1.818  1.00  0.00     0.118 C 
HETATM   11  C   LIG     1       3.340  -2.736  -1.389  1.00  0.00     0.042 C 
HETATM   12  C   LIG     1       2.027  -2.579  -1.171  1.00  0.00     0.016 C 
HETATM   13  C   LIG     1       1.194  -1.515  -1.191  1.00  0.00    -0.014 C 
HETATM   14  O   LIG     1       4.907   0.156  -2.714  1.00  0.00    -0.285 OA
HETATM   15  C   LIG     1      -2.623  -1.780  -1.404  1.00  0.00     0.047 A 
HETATM   16  C   LIG     1      -2.945  -2.596  -0.295  1.00  0.00     0.104 A 
HETATM   17  C   LIG     1      -1.898  -2.998   0.578  1.00  0.00     0.136 A 
ENDROOT
BRANCH   6  18
HETATM   18  N   LIG     1       0.995   2.204  -1.069  1.00  0.00    -0.351 N 
HETATM   19  C   LIG     1       0.338   3.217  -0.482  1.00  0.00     0.235 C 
HETATM   20  O   LIG     1      -0.828   3.131  -0.093  1.00  0.00    -0.272 OA
HETATM   21  H   LIG     1       1.949   2.368  -1.351  1.00  0.00     0.163 HD
BRANCH  19  22
HETATM   22  C   LIG     1       1.118   4.529  -0.336  1.00  0.00     0.225 C 
BRANCH  22  23
HETATM   23  N   LIG     1       0.645   5.348   0.778  1.00  0.00    -0.345 N 
HETATM   24  C   LIG     1       0.982   5.169   2.067  1.00  0.00     0.325 C 
HETATM   25  O   LIG     1       1.756   4.287   2.441  1.00  0.00    -0.263 OA
HETATM   26  H   LIG     1      -0.006   6.088   0.559  1.00  0.00     0.163 HD
BRANCH  24  27
HETATM   27  C   LIG     1       0.346   6.131   3.077  1.00  0.00     0.472 C 
HETATM   28  F   LIG     1       0.699   7.381   2.777  1.00  0.00    -0.162 F 
HETATM   29  F   LIG     1      -0.981   6.021   3.014  1.00  0.00    -0.162 F 
HETATM   30  F   LIG     1       0.756   5.840   4.312  1.00  0.00    -0.162 F 
ENDBRANCH  24  27
ENDBRANCH  22  23
ENDBRANCH  19  22
ENDBRANCH   6  18
BRANCH   1  31
HETATM   31  O   LIG     1       0.403  -3.015   1.199  1.00  0.00    -0.345 OA
BRANCH  31  32
HETATM   32  C   LIG     1       0.955  -1.976   2.006  1.00  0.00     0.202 C 
BRANCH  32  33
HETATM   33  C   LIG     1       0.229  -1.867   3.358  1.00  0.00     0.193 C 
BRANCH  33  34
HETATM   34  O   LIG     1       0.756  -2.764   4.327  1.00  0.00    -0.394 OA
HETATM   35  C   LIG     1       0.350  -4.112   4.155  1.00  0.00     0.201 C 
ENDBRANCH  33  34
ENDBRANCH  32  33
ENDBRANCH  31  32
ENDBRANCH   1  31
BRANCH  10  36
HETATM   36  O   LIG     1       5.633  -2.243  -1.976  1.00  0.00    -0.352 OA
HETATM   37  C   LIG     1       6.052  -3.554  -1.615  1.00  0.00     0.210 C 
ENDBRANCH  10  36
BRANCH  16  38
HETATM   38  O   LIG     1      -4.233  -3.030  -0.048  1.00  0.00    -0.353 OA
HETATM   39  C   LIG     1      -5.278  -2.623  -0.919  1.00  0.00     0.210 C 
ENDBRANCH  16  38
BRANCH  17  40
HETATM   40  O   LIG     1      -2.080  -3.777   1.703  1.00  0.00    -0.351 OA
HETATM   41  C   LIG     1      -3.264  -3.603   2.470  1.00  0.00     0.210 C 
ENDBRANCH  17  40
TORSDOF 11
