REMARK  9 active torsions:
REMARK  status: ('A' for Active; 'I' for Inactive)
REMARK    1  A    between atoms: C_2  and  O_3 
REMARK    2  A    between atoms: C_2  and  O_30 
REMARK    3  A    between atoms: O_3  and  C_4 
REMARK    4  A    between atoms: C_4  and  C_5 
REMARK    5  A    between atoms: C_9  and  O_10 
REMARK    6  A    between atoms: C_12  and  O_28 
REMARK    7  A    between atoms: C_13  and  O_14 
REMARK    8  A    between atoms: O_14  and  C_15 
REMARK    9  A    between atoms: C_21  and  O_26 
ROOT
HETATM    1  C   LIG     1      -0.949   0.612   0.230  1.00  0.00     0.048 C 
HETATM    2  C   LIG     1      -0.749  -0.659  -0.592  1.00  0.00     0.051 C 
HETATM    3  C   LIG     1       0.590  -1.307  -0.326  1.00  0.00    -0.041 C 
HETATM    4  C   LIG     1       0.708  -2.684  -0.580  1.00  0.00     0.047 C 
HETATM    5  C   LIG     1       1.912  -3.370  -0.364  1.00  0.00     0.104 C 
HETATM    6  C   LIG     1       3.050  -2.630   0.049  1.00  0.00     0.136 C 
HETATM    7  C   LIG     1       2.949  -1.223   0.236  1.00  0.00     0.116 C 
HETATM    8  C   LIG     1       1.688  -0.547   0.147  1.00  0.00     0.017 C 
HETATM    9  C   LIG     1       1.490   0.917   0.469  1.00  0.00    -0.016 C 
HETATM   10  C   LIG     1       2.444   1.553   1.180  1.00  0.00     0.016 C 
HETATM   11  C   LIG     1       2.839   2.834   1.212  1.00  0.00     0.042 C 
HETATM   12  C   LIG     1       2.412   3.920   0.532  1.00  0.00     0.118 C 
HETATM   13  C   LIG     1       1.136   3.903  -0.216  1.00  0.00     0.205 C 
HETATM   14  C   LIG     1       0.141   2.808  -0.199  1.00  0.00     0.066 C 
HETATM   15  C   LIG     1       0.298   1.516   0.199  1.00  0.00    -0.036 C 
HETATM   16  O   LIG     1       0.851   4.890  -0.893  1.00  0.00    -0.285 OA
ENDROOT
BRANCH   1  17
HETATM   17  C   LIG     1      -2.311   1.277  -0.074  1.00  0.00     0.190 C 
BRANCH  17  18
HETATM   18  O   LIG     1      -3.371   0.419   0.319  1.00  0.00    -0.297 OA
BRANCH  18  19
HETATM   19  C   LIG     1      -4.639   0.794   0.100  1.00  0.00     0.406 C 
HETATM   20  O   LIG     1      -5.013   1.845  -0.425  1.00  0.00    -0.230 OA
BRANCH  19  21
HETATM   21  O   LIG     1      -5.421  -0.192   0.559  1.00  0.00    -0.303 OA
HETATM   22  C   LIG     1      -6.829  -0.066   0.457  1.00  0.00     0.215 C 
ENDBRANCH  19  21
ENDBRANCH  18  19
ENDBRANCH  17  18
ENDBRANCH   1  17
BRANCH   7  23
HETATM   23  O   LIG     1       4.121  -0.535   0.441  1.00  0.00    -0.348 OA
BRANCH  23  24
HETATM   24  C   LIG     1       4.623   0.148  -0.705  1.00  0.00     0.171 C 
HETATM   25  C   LIG     1       5.389  -0.799  -1.638  1.00  0.00     0.034 C 
ENDBRANCH  23  24
ENDBRANCH   7  23
BRANCH  12  26
HETATM   26  O   LIG     1       3.076   5.130   0.492  1.00  0.00    -0.352 OA
HETATM   27  C   LIG     1       4.365   5.220   1.086  1.00  0.00     0.210 C 
ENDBRANCH  12  26
BRANCH   5  28
HETATM   28  O   LIG     1       1.869  -4.727  -0.618  1.00  0.00    -0.353 OA
HETATM   29  C   LIG     1       2.796  -5.589   0.025  1.00  0.00     0.210 C 
ENDBRANCH   5  28
BRANCH   6  30
HETATM   30  O   LIG     1       4.265  -3.267   0.172  1.00  0.00    -0.351 OA
HETATM   31  C   LIG     1       4.963  -3.070   1.396  1.00  0.00     0.210 C 
ENDBRANCH   6  30
TORSDOF 9
