REMARK  10 active torsions:
REMARK  status: ('A' for Active; 'I' for Inactive)
REMARK    1  A    between atoms: O_2  and  C_3 
REMARK    2  A    between atoms: C_3  and  C_4 
REMARK    3  A    between atoms: C_4  and  O_5 
REMARK    4  A    between atoms: O_5  and  C_6 
REMARK    5  A    between atoms: C_11  and  C_22 
REMARK    6  A    between atoms: C_15  and  O_16 
REMARK    7  A    between atoms: C_22  and  C_23 
REMARK    8  A    between atoms: C_23  and  O_24 
REMARK    9  A    between atoms: C_28  and  O_29 
REMARK   10  A    between atoms: C_31  and  O_32 
ROOT
HETATM    1  C   LIG     1       1.491  -1.686   0.048  1.00  0.00     0.116 A 
HETATM    2  C   LIG     1       1.144  -0.592   0.891  1.00  0.00     0.017 A 
HETATM    3  C   LIG     1       2.188   0.071   1.593  1.00  0.00    -0.041 A 
HETATM    4  C   LIG     1       1.904   1.307   2.436  1.00  0.00     0.040 C 
HETATM    5  C   LIG     1       1.490   2.514   1.572  1.00  0.00     0.014 C 
HETATM    6  C   LIG     1       0.545   2.138   0.413  1.00  0.00     0.029 C 
HETATM    7  C   LIG     1      -0.578   1.195   0.909  1.00  0.00    -0.038 C 
HETATM    8  C   LIG     1      -1.740   1.809   1.250  1.00  0.00     0.066 C 
HETATM    9  C   LIG     1      -3.053   1.239   1.614  1.00  0.00     0.205 C 
HETATM   10  C   LIG     1      -3.415  -0.191   1.633  1.00  0.00     0.118 C 
HETATM   11  C   LIG     1      -2.482  -1.158   1.498  1.00  0.00     0.042 C 
HETATM   12  C   LIG     1      -1.158  -1.123   1.294  1.00  0.00     0.016 C 
HETATM   13  C   LIG     1      -0.280  -0.133   1.026  1.00  0.00    -0.016 C 
HETATM   14  O   LIG     1      -3.926   2.053   1.917  1.00  0.00    -0.285 OA
HETATM   15  C   LIG     1       3.512  -0.402   1.514  1.00  0.00     0.047 A 
HETATM   16  C   LIG     1       3.832  -1.526   0.734  1.00  0.00     0.104 A 
HETATM   17  C   LIG     1       2.821  -2.153  -0.037  1.00  0.00     0.136 A 
ENDROOT
BRANCH   1  18
HETATM   18  O   LIG     1       0.555  -2.289  -0.755  1.00  0.00    -0.345 OA
BRANCH  18  19
HETATM   19  C   LIG     1       0.274  -1.553  -1.938  1.00  0.00     0.202 C 
BRANCH  19  20
HETATM   20  C   LIG     1      -0.695  -2.328  -2.841  1.00  0.00     0.193 C 
BRANCH  20  21
HETATM   21  O   LIG     1      -2.038  -2.188  -2.399  1.00  0.00    -0.394 OA
HETATM   22  C   LIG     1      -2.448  -3.202  -1.496  1.00  0.00     0.201 C 
ENDBRANCH  20  21
ENDBRANCH  19  20
ENDBRANCH  18  19
ENDBRANCH   1  18
BRANCH  17  23
HETATM   23  O   LIG     1       3.059  -3.211  -0.887  1.00  0.00    -0.351 OA
HETATM   24  C   LIG     1       4.200  -3.115  -1.729  1.00  0.00     0.210 C 
ENDBRANCH  17  23
BRANCH  16  25
HETATM   25  O   LIG     1       5.127  -1.972   0.750  1.00  0.00    -0.353 OA
HETATM   26  C   LIG     1       5.311  -3.128   1.552  1.00  0.00     0.210 C 
ENDBRANCH  16  25
BRANCH   6  27
HETATM   27  C   LIG     1       0.106   3.378  -0.413  1.00  0.00     0.120 C 
BRANCH  27  28
HETATM   28  C   LIG     1      -0.774   3.041  -1.622  1.00  0.00     0.259 C 
HETATM   29  O   LIG     1      -1.900   3.521  -1.746  1.00  0.00    -0.265 OA
BRANCH  28  30
HETATM   30  O   LIG     1      -0.182   2.194  -2.481  1.00  0.00    -0.326 OA
HETATM   31  C   LIG     1      -0.890   1.754  -3.627  1.00  0.00     0.213 C 
ENDBRANCH  28  30
ENDBRANCH  27  28
ENDBRANCH   6  27
BRANCH  10  32
HETATM   32  O   LIG     1      -4.763  -0.424   1.822  1.00  0.00    -0.352 OA
HETATM   33  C   LIG     1      -5.244  -1.762   1.776  1.00  0.00     0.210 C 
ENDBRANCH  10  32
TORSDOF 10
