REMARK  10 active torsions:
REMARK  status: ('A' for Active; 'I' for Inactive)
REMARK    1  A    between atoms: C_2  and  O_3 
REMARK    2  A    between atoms: C_2  and  O_31 
REMARK    3  A    between atoms: O_3  and  C_4 
REMARK    4  A    between atoms: C_4  and  C_5 
REMARK    5  A    between atoms: C_9  and  O_10 
REMARK    6  A    between atoms: O_10  and  C_11 
REMARK    7  A    between atoms: C_11  and  C_12 
REMARK    8  A    between atoms: C_14  and  O_29 
REMARK    9  A    between atoms: C_15  and  O_16 
REMARK   10  A    between atoms: C_22  and  S_27 
ROOT
HETATM    1  C   LIG     1      -0.195   0.770   0.336  1.00  0.00     0.048 C 
HETATM    2  C   LIG     1       1.071  -0.019   0.713  1.00  0.00     0.051 C 
HETATM    3  C   LIG     1       1.042  -1.472   0.315  1.00  0.00    -0.041 A 
HETATM    4  C   LIG     1       2.264  -2.135   0.112  1.00  0.00     0.048 A 
HETATM    5  C   LIG     1       2.313  -3.496  -0.227  1.00  0.00     0.105 A 
HETATM    6  C   LIG     1       1.091  -4.199  -0.409  1.00  0.00     0.136 A 
HETATM    7  C   LIG     1      -0.145  -3.513  -0.242  1.00  0.00     0.116 A 
HETATM    8  C   LIG     1      -0.187  -2.148   0.177  1.00  0.00     0.017 A 
HETATM    9  C   LIG     1      -1.466  -1.402   0.413  1.00  0.00    -0.016 C 
HETATM   10  C   LIG     1      -2.516  -2.120   0.864  1.00  0.00     0.014 C 
HETATM   11  C   LIG     1      -3.838  -1.896   0.876  1.00  0.00     0.023 C 
HETATM   12  C   LIG     1      -4.609  -0.915   0.378  1.00  0.00     0.050 C 
HETATM   13  C   LIG     1      -3.993   0.277  -0.249  1.00  0.00     0.189 C 
HETATM   14  C   LIG     1      -2.574   0.675  -0.139  1.00  0.00     0.064 C 
HETATM   15  C   LIG     1      -1.496  -0.049   0.261  1.00  0.00    -0.037 C 
HETATM   16  O   LIG     1      -4.707   1.022  -0.918  1.00  0.00    -0.287 OA
ENDROOT
BRANCH   1  17
HETATM   17  C   LIG     1      -0.329   1.995   1.277  1.00  0.00     0.190 C 
BRANCH  17  18
HETATM   18  O   LIG     1       0.735   2.918   1.082  1.00  0.00    -0.297 OA
BRANCH  18  19
HETATM   19  C   LIG     1       0.661   3.839   0.106  1.00  0.00     0.406 C 
HETATM   20  O   LIG     1      -0.268   3.992  -0.690  1.00  0.00    -0.230 OA
BRANCH  19  21
HETATM   21  O   LIG     1       1.791   4.556   0.160  1.00  0.00    -0.303 OA
HETATM   22  C   LIG     1       1.992   5.609  -0.767  1.00  0.00     0.215 C 
ENDBRANCH  19  21
ENDBRANCH  18  19
ENDBRANCH  17  18
ENDBRANCH   1  17
BRANCH   7  23
HETATM   23  O   LIG     1      -1.304  -4.171  -0.569  1.00  0.00    -0.352 OA
HETATM   24  C   LIG     1      -1.661  -4.031  -1.935  1.00  0.00     0.210 C 
ENDBRANCH   7  23
BRANCH  12  25
HETATM   25  S   LIG     1      -6.369  -1.157   0.467  1.00  0.00    -0.130 SA
HETATM   26  C   LIG     1      -7.033   0.429   1.049  1.00  0.00     0.095 C 
ENDBRANCH  12  25
BRANCH   5  27
HETATM   27  O   LIG     1       3.583  -4.017  -0.375  1.00  0.00    -0.345 OA
BRANCH  27  28
HETATM   28  C   LIG     1       3.799  -5.410  -0.206  1.00  0.00     0.202 C 
BRANCH  28  29
HETATM   29  C   LIG     1       5.268  -5.683   0.035  1.00  0.00    -0.011 C 
HETATM   30  C   LIG     1       5.760  -6.293   1.124  1.00  0.00     0.009 C 
ENDBRANCH  28  29
ENDBRANCH  27  28
ENDBRANCH   5  27
BRANCH   6  31
HETATM   31  O   LIG     1       1.115  -5.512  -0.824  1.00  0.00    -0.351 OA
HETATM   32  C   LIG     1       0.336  -6.433  -0.070  1.00  0.00     0.210 C 
ENDBRANCH   6  31
TORSDOF 10
