REMARK  6 active torsions:
REMARK  status: ('A' for Active; 'I' for Inactive)
REMARK    1  A    between atoms: C_2  and  O_3 
REMARK    2  A    between atoms: O_3  and  C_4 
REMARK    3  A    between atoms: C_9  and  N_20 
REMARK    4  A    between atoms: C_13  and  O_14 
REMARK       I    between atoms: N_20  and  C_21 
REMARK    5  A    between atoms: C_25  and  O_26 
REMARK    6  A    between atoms: C_28  and  O_29 
ROOT
HETATM    1  C   LIG     1       0.805  -2.599  -0.287  1.00  0.00     0.116 A 
HETATM    2  C   LIG     1       0.523  -1.492   0.560  1.00  0.00     0.017 A 
HETATM    3  C   LIG     1       1.595  -0.941   1.310  1.00  0.00    -0.041 A 
HETATM    4  C   LIG     1       1.377   0.275   2.197  1.00  0.00     0.042 C 
HETATM    5  C   LIG     1       1.100   1.543   1.373  1.00  0.00     0.034 C 
HETATM    6  C   LIG     1       0.181   1.294   0.157  1.00  0.00     0.119 C 
HETATM    7  C   LIG     1      -1.045   0.437   0.553  1.00  0.00    -0.020 C 
HETATM    8  C   LIG     1      -2.188   1.133   0.793  1.00  0.00     0.068 C 
HETATM    9  C   LIG     1      -3.566   0.661   1.041  1.00  0.00     0.205 C 
HETATM   10  C   LIG     1      -4.030  -0.739   1.045  1.00  0.00     0.118 C 
HETATM   11  C   LIG     1      -3.163  -1.771   0.983  1.00  0.00     0.042 C 
HETATM   12  C   LIG     1      -1.829  -1.834   0.868  1.00  0.00     0.016 C 
HETATM   13  C   LIG     1      -0.862  -0.915   0.654  1.00  0.00    -0.014 C 
HETATM   14  O   LIG     1      -4.401   1.540   1.251  1.00  0.00    -0.285 OA
HETATM   15  C   LIG     1       2.882  -1.508   1.244  1.00  0.00     0.047 A 
HETATM   16  C   LIG     1       3.152  -2.632   0.429  1.00  0.00     0.104 A 
HETATM   17  C   LIG     1       2.099  -3.163  -0.361  1.00  0.00     0.136 A 
ENDROOT
BRANCH   6  18
HETATM   18  N   LIG     1      -0.157   2.555  -0.515  1.00  0.00    -0.353 N 
HETATM   19  C   LIG     1       0.666   3.275  -1.293  1.00  0.00     0.214 C 
HETATM   20  C   LIG     1       0.085   4.555  -1.883  1.00  0.00     0.117 C 
HETATM   21  O   LIG     1       1.827   2.953  -1.541  1.00  0.00    -0.274 OA
HETATM   22  H   LIG     1      -1.095   2.902  -0.382  1.00  0.00     0.163 HD
ENDBRANCH   6  18
BRANCH   1  23
HETATM   23  O   LIG     1      -0.173  -3.131  -1.089  1.00  0.00    -0.348 OA
BRANCH  23  24
HETATM   24  C   LIG     1      -0.298  -2.472  -2.340  1.00  0.00     0.171 C 
HETATM   25  C   LIG     1      -1.537  -3.013  -3.056  1.00  0.00     0.034 C 
ENDBRANCH  23  24
ENDBRANCH   1  23
BRANCH  10  26
HETATM   26  O   LIG     1      -5.402  -0.872   1.150  1.00  0.00    -0.352 OA
HETATM   27  C   LIG     1      -5.972  -2.175   1.126  1.00  0.00     0.210 C 
ENDBRANCH  10  26
BRANCH  16  28
HETATM   28  O   LIG     1       4.390  -3.243   0.390  1.00  0.00    -0.353 OA
HETATM   29  C   LIG     1       5.445  -2.709   1.176  1.00  0.00     0.210 C 
ENDBRANCH  16  28
BRANCH  17  30
HETATM   30  O   LIG     1       2.243  -4.240  -1.210  1.00  0.00    -0.351 OA
HETATM   31  C   LIG     1       3.426  -4.319  -1.992  1.00  0.00     0.210 C 
ENDBRANCH  17  30
TORSDOF 6
