REMARK  7 active torsions:
REMARK  status: ('A' for Active; 'I' for Inactive)
REMARK    1  A    between atoms: O_2  and  C_3 
REMARK    2  A    between atoms: C_4  and  O_34 
REMARK    3  A    between atoms: C_9  and  N_30 
REMARK    4  A    between atoms: C_13  and  O_14 
REMARK    5  A    between atoms: C_20  and  O_21 
REMARK    6  A    between atoms: O_21  and  C_22 
REMARK    7  A    between atoms: C_22  and  C_23 
REMARK       I    between atoms: N_30  and  C_31 
ROOT
HETATM    1  C   LIG     1      -1.952  -3.029  -0.252  1.00  0.00     0.136 A 
HETATM    2  C   LIG     1      -3.053  -2.158  -0.466  1.00  0.00     0.104 A 
HETATM    3  C   LIG     1      -2.793  -0.819  -0.838  1.00  0.00     0.047 A 
HETATM    4  C   LIG     1      -1.479  -0.354  -1.030  1.00  0.00    -0.041 A 
HETATM    5  C   LIG     1      -1.269   1.096  -1.435  1.00  0.00     0.042 C 
HETATM    6  C   LIG     1      -0.628   1.919  -0.306  1.00  0.00     0.034 C 
HETATM    7  C   LIG     1       0.465   1.148   0.467  1.00  0.00     0.119 C 
HETATM    8  C   LIG     1       1.443   0.441  -0.502  1.00  0.00    -0.020 C 
HETATM    9  C   LIG     1       2.629   1.077  -0.699  1.00  0.00     0.068 C 
HETATM   10  C   LIG     1       3.854   0.633  -1.393  1.00  0.00     0.205 C 
HETATM   11  C   LIG     1       4.064  -0.660  -2.071  1.00  0.00     0.118 C 
HETATM   12  C   LIG     1       3.049  -1.528  -2.266  1.00  0.00     0.042 C 
HETATM   13  C   LIG     1       1.766  -1.527  -1.882  1.00  0.00     0.016 C 
HETATM   14  C   LIG     1       1.031  -0.733  -1.073  1.00  0.00    -0.014 C 
HETATM   15  C   LIG     1      -0.371  -1.223  -0.850  1.00  0.00     0.017 A 
HETATM   16  C   LIG     1      -0.629  -2.561  -0.441  1.00  0.00     0.117 A 
HETATM   17  O   LIG     1       4.791   1.431  -1.383  1.00  0.00    -0.285 OA
ENDROOT
BRANCH  16  18
HETATM   18  O   LIG     1       0.414  -3.432  -0.225  1.00  0.00    -0.343 OA
BRANCH  18  19
HETATM   19  C   LIG     1       0.715  -3.701   1.141  1.00  0.00     0.216 C 
BRANCH  19  20
HETATM   20  C   LIG     1       1.541  -2.605   1.787  1.00  0.00    -0.017 A 
HETATM   21  C   LIG     1       1.011  -1.804   2.820  1.00  0.00     0.125 A 
HETATM   22  N   LIG     1       1.710  -0.821   3.426  1.00  0.00    -0.272 NA
HETATM   23  C   LIG     1       2.977  -0.598   3.015  1.00  0.00     0.116 A 
HETATM   24  C   LIG     1       3.601  -1.341   1.995  1.00  0.00     0.020 A 
HETATM   25  C   LIG     1       2.868  -2.369   1.373  1.00  0.00     0.012 A 
ENDBRANCH  19  20
ENDBRANCH  18  19
ENDBRANCH  16  18
BRANCH   1  26
HETATM   26  O   LIG     1      -2.094  -4.356   0.098  1.00  0.00    -0.351 OA
HETATM   27  C   LIG     1      -3.053  -4.680   1.095  1.00  0.00     0.210 C 
ENDBRANCH   1  26
BRANCH   2  28
HETATM   28  O   LIG     1      -4.334  -2.658  -0.334  1.00  0.00    -0.353 OA
HETATM   29  C   LIG     1      -5.437  -1.786  -0.540  1.00  0.00     0.210 C 
ENDBRANCH   2  28
BRANCH   7  30
HETATM   30  N   LIG     1       1.114   2.013   1.459  1.00  0.00    -0.353 N 
HETATM   31  C   LIG     1       0.577   2.416   2.621  1.00  0.00     0.214 C 
HETATM   32  C   LIG     1       1.464   3.284   3.506  1.00  0.00     0.117 C 
HETATM   33  O   LIG     1      -0.558   2.116   2.989  1.00  0.00    -0.274 OA
HETATM   34  H   LIG     1       2.058   2.308   1.256  1.00  0.00     0.163 HD
ENDBRANCH   7  30
BRANCH  11  35
HETATM   35  O   LIG     1       5.362  -0.865  -2.496  1.00  0.00    -0.352 OA
HETATM   36  C   LIG     1       5.705  -2.115  -3.080  1.00  0.00     0.210 C 
ENDBRANCH  11  35
TORSDOF 7
