REMARK  9 active torsions:
REMARK  status: ('A' for Active; 'I' for Inactive)
REMARK    1  A    between atoms: C_2  and  O_3 
REMARK    2  A    between atoms: O_3  and  C_4 
REMARK    3  A    between atoms: C_9  and  N_12 
REMARK       I    between atoms: N_12  and  C_13 
REMARK    4  A    between atoms: C_13  and  C_14 
REMARK    5  A    between atoms: C_14  and  N_15 
REMARK       I    between atoms: N_15  and  C_16 
REMARK    6  A    between atoms: C_16  and  C_17 
REMARK    7  A    between atoms: C_23  and  O_24 
REMARK    8  A    between atoms: C_26  and  O_27 
REMARK    9  A    between atoms: C_33  and  S_34 
ROOT
HETATM    1  C   LIG     1      -2.625  -3.394   0.249  1.00  0.00     0.105 A 
HETATM    2  C   LIG     1      -2.230  -2.638  -0.867  1.00  0.00     0.047 A 
HETATM    3  C   LIG     1      -0.870  -2.417  -1.154  1.00  0.00    -0.041 A 
HETATM    4  C   LIG     1      -0.513  -1.609  -2.392  1.00  0.00     0.042 C 
HETATM    5  C   LIG     1       0.124  -0.256  -2.034  1.00  0.00     0.034 C 
HETATM    6  C   LIG     1       1.125  -0.342  -0.861  1.00  0.00     0.119 C 
HETATM    7  C   LIG     1       2.072  -1.552  -1.028  1.00  0.00    -0.020 C 
HETATM    8  C   LIG     1       3.286  -1.272  -1.574  1.00  0.00     0.066 C 
HETATM    9  C   LIG     1      -1.631  -3.869   1.141  1.00  0.00     0.136 A 
HETATM   10  C   LIG     1      -0.263  -3.647   0.864  1.00  0.00     0.116 A 
HETATM   11  C   LIG     1       0.144  -2.948  -0.310  1.00  0.00     0.017 A 
HETATM   12  C   LIG     1       1.595  -2.780  -0.663  1.00  0.00    -0.014 C 
HETATM   13  C   LIG     1       2.315  -3.921  -0.602  1.00  0.00     0.014 C 
HETATM   14  C   LIG     1       3.612  -4.206  -0.786  1.00  0.00     0.023 C 
HETATM   15  C   LIG     1       4.664  -3.497  -1.223  1.00  0.00     0.050 C 
HETATM   16  C   LIG     1       4.479  -2.126  -1.746  1.00  0.00     0.189 C 
HETATM   17  O   LIG     1       5.399  -1.622  -2.390  1.00  0.00    -0.287 OA
ENDROOT
BRANCH   6  18
HETATM   18  N   LIG     1       1.816   0.938  -0.662  1.00  0.00    -0.351 N 
HETATM   19  C   LIG     1       1.284   2.042  -0.115  1.00  0.00     0.235 C 
HETATM   20  O   LIG     1       0.123   2.100   0.295  1.00  0.00    -0.272 OA
HETATM   21  H   LIG     1       2.779   0.983  -0.960  1.00  0.00     0.163 HD
BRANCH  19  22
HETATM   22  C   LIG     1       2.214   3.253  -0.019  1.00  0.00     0.225 C 
BRANCH  22  23
HETATM   23  N   LIG     1       1.537   4.414   0.546  1.00  0.00    -0.345 N 
HETATM   24  C   LIG     1       2.086   5.630   0.675  1.00  0.00     0.325 C 
HETATM   25  O   LIG     1       3.240   5.882   0.324  1.00  0.00    -0.263 OA
HETATM   26  H   LIG     1       0.583   4.277   0.853  1.00  0.00     0.163 HD
BRANCH  24  27
HETATM   27  C   LIG     1       1.200   6.718   1.291  1.00  0.00     0.472 C 
HETATM   28  F   LIG     1       0.111   6.878   0.539  1.00  0.00    -0.162 F 
HETATM   29  F   LIG     1       0.836   6.346   2.519  1.00  0.00    -0.162 F 
HETATM   30  F   LIG     1       1.865   7.872   1.357  1.00  0.00    -0.162 F 
ENDBRANCH  24  27
ENDBRANCH  22  23
ENDBRANCH  19  22
ENDBRANCH   6  18
BRANCH  10  31
HETATM   31  O   LIG     1       0.645  -4.110   1.785  1.00  0.00    -0.352 OA
HETATM   32  C   LIG     1       1.252  -3.091   2.568  1.00  0.00     0.210 C 
ENDBRANCH  10  31
BRANCH  15  33
HETATM   33  S   LIG     1       6.233  -4.334  -1.259  1.00  0.00    -0.130 SA
HETATM   34  C   LIG     1       7.412  -3.145  -0.560  1.00  0.00     0.095 C 
ENDBRANCH  15  33
BRANCH   1  35
HETATM   35  O   LIG     1      -3.975  -3.605   0.414  1.00  0.00    -0.349 OA
BRANCH  35  36
HETATM   36  C   LIG     1      -4.381  -4.925   0.755  1.00  0.00     0.171 C 
HETATM   37  C   LIG     1      -5.776  -5.169   0.176  1.00  0.00     0.034 C 
ENDBRANCH  35  36
ENDBRANCH   1  35
BRANCH   9  38
HETATM   38  O   LIG     1      -1.956  -4.529   2.298  1.00  0.00    -0.351 OA
HETATM   39  C   LIG     1      -2.457  -3.676   3.317  1.00  0.00     0.210 C 
ENDBRANCH   9  38
TORSDOF 9
