REMARK  8 active torsions:
REMARK  status: ('A' for Active; 'I' for Inactive)
REMARK    1  A    between atoms: C_2  and  O_3 
REMARK    2  A    between atoms: O_3  and  C_4 
REMARK    3  A    between atoms: C_9  and  C_12 
REMARK    4  A    between atoms: C_12  and  C_13 
REMARK    5  A    between atoms: C_13  and  O_14 
REMARK    6  A    between atoms: C_17  and  O_18 
REMARK    7  A    between atoms: C_20  and  O_21 
REMARK    8  A    between atoms: C_27  and  S_28 
ROOT
HETATM    1  C   LIG     1      -2.742  -2.891   0.030  1.00  0.00     0.105 A 
HETATM    2  C   LIG     1      -2.456  -2.004  -1.022  1.00  0.00     0.047 A 
HETATM    3  C   LIG     1      -1.157  -1.511  -1.239  1.00  0.00    -0.041 A 
HETATM    4  C   LIG     1      -0.927  -0.550  -2.396  1.00  0.00     0.040 C 
HETATM    5  C   LIG     1      -0.614   0.877  -1.909  1.00  0.00     0.014 C 
HETATM    6  C   LIG     1       0.325   0.908  -0.687  1.00  0.00     0.029 C 
HETATM    7  C   LIG     1       1.513  -0.062  -0.886  1.00  0.00    -0.038 C 
HETATM    8  C   LIG     1       2.635   0.499  -1.406  1.00  0.00     0.064 C 
HETATM    9  C   LIG     1      -1.699  -3.263   0.922  1.00  0.00     0.136 A 
HETATM   10  C   LIG     1      -0.393  -2.735   0.728  1.00  0.00     0.116 A 
HETATM   11  C   LIG     1      -0.092  -1.890  -0.377  1.00  0.00     0.017 A 
HETATM   12  C   LIG     1       1.304  -1.385  -0.616  1.00  0.00    -0.016 C 
HETATM   13  C   LIG     1       2.260  -2.338  -0.569  1.00  0.00     0.014 C 
HETATM   14  C   LIG     1       3.594  -2.314  -0.706  1.00  0.00     0.023 C 
HETATM   15  C   LIG     1       4.469  -1.369  -1.088  1.00  0.00     0.050 C 
HETATM   16  C   LIG     1       3.989  -0.063  -1.589  1.00  0.00     0.189 C 
HETATM   17  O   LIG     1       4.775   0.642  -2.219  1.00  0.00    -0.287 OA
ENDROOT
BRANCH   6  18
HETATM   18  C   LIG     1       0.672   2.360  -0.259  1.00  0.00     0.120 C 
BRANCH  18  19
HETATM   19  C   LIG     1       1.533   2.445   1.006  1.00  0.00     0.259 C 
HETATM   20  O   LIG     1       2.653   2.956   0.983  1.00  0.00    -0.265 OA
BRANCH  19  21
HETATM   21  O   LIG     1       0.932   1.915   2.083  1.00  0.00    -0.326 OA
HETATM   22  C   LIG     1       1.615   1.898   3.325  1.00  0.00     0.213 C 
ENDBRANCH  19  21
ENDBRANCH  18  19
ENDBRANCH   6  18
BRANCH  10  23
HETATM   23  O   LIG     1       0.578  -2.990   1.664  1.00  0.00    -0.352 OA
HETATM   24  C   LIG     1       0.646  -2.004   2.682  1.00  0.00     0.210 C 
ENDBRANCH  10  23
BRANCH  15  25
HETATM   25  S   LIG     1       6.188  -1.823  -1.083  1.00  0.00    -0.130 SA
HETATM   26  C   LIG     1       7.043  -0.397  -0.356  1.00  0.00     0.095 C 
ENDBRANCH  15  25
BRANCH   1  27
HETATM   27  O   LIG     1      -4.058  -3.303   0.105  1.00  0.00    -0.349 OA
BRANCH  27  28
HETATM   28  C   LIG     1      -4.368  -4.555   0.700  1.00  0.00     0.171 C 
HETATM   29  C   LIG     1      -5.746  -4.999   0.203  1.00  0.00     0.034 C 
ENDBRANCH  27  28
ENDBRANCH   1  27
BRANCH   9  30
HETATM   30  O   LIG     1      -1.986  -4.063   2.006  1.00  0.00    -0.351 OA
HETATM   31  C   LIG     1      -1.129  -5.175   2.230  1.00  0.00     0.210 C 
ENDBRANCH   9  30
TORSDOF 8
