REMARK  10 active torsions:
REMARK  status: ('A' for Active; 'I' for Inactive)
REMARK    1  A    between atoms: C_2  and  O_3 
REMARK    2  A    between atoms: C_2  and  O_35 
REMARK    3  A    between atoms: O_3  and  C_4 
REMARK    4  A    between atoms: C_4  and  C_5 
REMARK    5  A    between atoms: C_9  and  O_10 
REMARK    6  A    between atoms: C_12  and  O_33 
REMARK    7  A    between atoms: C_13  and  O_14 
REMARK    8  A    between atoms: O_14  and  C_15 
REMARK    9  A    between atoms: C_15  and  C_16 
REMARK   10  A    between atoms: C_26  and  O_31 
ROOT
HETATM    1  C   LIG     1      -0.673   1.077  -0.108  1.00  0.00     0.048 C 
HETATM    2  C   LIG     1      -1.936   0.283  -0.489  1.00  0.00     0.051 C 
HETATM    3  C   LIG     1      -1.804  -1.211  -0.345  1.00  0.00    -0.041 A 
HETATM    4  C   LIG     1      -2.974  -1.978  -0.186  1.00  0.00     0.047 A 
HETATM    5  C   LIG     1      -2.912  -3.377  -0.081  1.00  0.00     0.104 A 
HETATM    6  C   LIG     1      -1.642  -4.005  -0.048  1.00  0.00     0.136 A 
HETATM    7  C   LIG     1      -0.469  -3.235  -0.215  1.00  0.00     0.117 A 
HETATM    8  C   LIG     1      -0.535  -1.823  -0.417  1.00  0.00     0.017 A 
HETATM    9  C   LIG     1       0.677  -0.975  -0.650  1.00  0.00    -0.016 C 
HETATM   10  C   LIG     1       1.701  -1.550  -1.314  1.00  0.00     0.016 C 
HETATM   11  C   LIG     1       3.017  -1.297  -1.352  1.00  0.00     0.042 C 
HETATM   12  C   LIG     1       3.784  -0.404  -0.689  1.00  0.00     0.118 C 
HETATM   13  C   LIG     1       3.182   0.693   0.098  1.00  0.00     0.205 C 
HETATM   14  C   LIG     1       1.745   1.040   0.148  1.00  0.00     0.066 C 
HETATM   15  C   LIG     1       0.665   0.333  -0.276  1.00  0.00    -0.036 C 
HETATM   16  O   LIG     1       3.935   1.405   0.761  1.00  0.00    -0.285 OA
ENDROOT
BRANCH   7  17
HETATM   17  O   LIG     1       0.731  -3.898  -0.129  1.00  0.00    -0.343 OA
BRANCH  17  18
HETATM   18  C   LIG     1       1.388  -3.748   1.124  1.00  0.00     0.216 C 
BRANCH  18  19
HETATM   19  C   LIG     1       2.858  -4.103   1.032  1.00  0.00    -0.017 A 
HETATM   20  C   LIG     1       3.835  -3.308   1.666  1.00  0.00     0.125 A 
HETATM   21  N   LIG     1       5.157  -3.580   1.623  1.00  0.00    -0.272 NA
HETATM   22  C   LIG     1       5.554  -4.675   0.940  1.00  0.00     0.116 A 
HETATM   23  C   LIG     1       4.660  -5.538   0.275  1.00  0.00     0.020 A 
HETATM   24  C   LIG     1       3.284  -5.247   0.326  1.00  0.00     0.012 A 
ENDBRANCH  18  19
ENDBRANCH  17  18
ENDBRANCH   7  17
BRANCH   6  25
HETATM   25  O   LIG     1      -1.503  -5.353   0.170  1.00  0.00    -0.351 OA
HETATM   26  C   LIG     1      -1.853  -5.765   1.484  1.00  0.00     0.210 C 
ENDBRANCH   6  25
BRANCH   5  27
HETATM   27  O   LIG     1      -4.104  -4.058  -0.000  1.00  0.00    -0.353 OA
HETATM   28  C   LIG     1      -4.256  -5.147  -0.902  1.00  0.00     0.210 C 
ENDBRANCH   5  27
BRANCH   1  29
HETATM   29  C   LIG     1      -0.680   2.436  -0.855  1.00  0.00     0.190 C 
BRANCH  29  30
HETATM   30  O   LIG     1      -1.758   3.258  -0.425  1.00  0.00    -0.297 OA
BRANCH  30  31
HETATM   31  C   LIG     1      -1.630   4.023   0.673  1.00  0.00     0.406 C 
HETATM   32  O   LIG     1      -0.636   4.103   1.399  1.00  0.00    -0.230 OA
BRANCH  31  33
HETATM   33  O   LIG     1      -2.789   4.676   0.831  1.00  0.00    -0.303 OA
HETATM   34  C   LIG     1      -2.943   5.562   1.925  1.00  0.00     0.215 C 
ENDBRANCH  31  33
ENDBRANCH  30  31
ENDBRANCH  29  30
ENDBRANCH   1  29
BRANCH  12  35
HETATM   35  O   LIG     1       5.165  -0.402  -0.693  1.00  0.00    -0.352 OA
HETATM   36  C   LIG     1       5.851  -1.431  -1.394  1.00  0.00     0.210 C 
ENDBRANCH  12  35
TORSDOF 10
