REMARK  8 active torsions:
REMARK  status: ('A' for Active; 'I' for Inactive)
REMARK    1  A    between atoms: S_2  and  C_3 
REMARK    2  A    between atoms: C_8  and  N_9 
REMARK       I    between atoms: N_9  and  C_10 
REMARK    3  A    between atoms: C_10  and  C_11 
REMARK    4  A    between atoms: C_11  and  N_12 
REMARK       I    between atoms: N_12  and  C_13 
REMARK    5  A    between atoms: C_13  and  C_14 
REMARK    6  A    between atoms: C_24  and  O_25 
REMARK    7  A    between atoms: C_26  and  O_31 
REMARK    8  A    between atoms: C_27  and  O_28 
ROOT
HETATM    1  C   LIG     1       1.747   3.376  -0.993  1.00  0.00     0.050 C 
HETATM    2  C   LIG     1       2.810   2.596  -0.738  1.00  0.00     0.023 C 
HETATM    3  C   LIG     1       2.977   1.273  -0.606  1.00  0.00     0.014 C 
HETATM    4  C   LIG     1       2.124   0.227  -0.551  1.00  0.00    -0.014 C 
HETATM    5  C   LIG     1       0.768   0.293  -0.713  1.00  0.00    -0.020 C 
HETATM    6  C   LIG     1      -0.045  -0.996  -0.453  1.00  0.00     0.119 C 
HETATM    7  C   LIG     1       0.013  -1.942  -1.673  1.00  0.00     0.034 C 
HETATM    8  C   LIG     1       1.430  -2.111  -2.245  1.00  0.00     0.042 C 
HETATM    9  C   LIG     1       2.475  -2.219  -1.146  1.00  0.00    -0.041 A 
HETATM   10  C   LIG     1       3.111  -3.458  -0.944  1.00  0.00     0.047 A 
HETATM   11  C   LIG     1       4.076  -3.605   0.064  1.00  0.00     0.102 A 
HETATM   12  C   LIG     1       4.417  -2.520   0.894  1.00  0.00     0.135 A 
HETATM   13  C   LIG     1       3.744  -1.278   0.723  1.00  0.00     0.116 A 
HETATM   14  C   LIG     1       2.791  -1.102  -0.324  1.00  0.00     0.017 A 
HETATM   15  C   LIG     1       0.043   1.364  -1.132  1.00  0.00     0.066 C 
HETATM   16  C   LIG     1       0.440   2.773  -1.333  1.00  0.00     0.189 C 
HETATM   17  O   LIG     1      -0.420   3.497  -1.831  1.00  0.00    -0.287 OA
ENDROOT
BRANCH   6  18
HETATM   18  N   LIG     1      -1.432  -0.756  -0.038  1.00  0.00    -0.351 N 
HETATM   19  C   LIG     1      -2.223  -1.632   0.601  1.00  0.00     0.235 C 
HETATM   20  O   LIG     1      -1.851  -2.756   0.941  1.00  0.00    -0.272 OA
HETATM   21  H   LIG     1      -1.821   0.148  -0.261  1.00  0.00     0.163 HD
BRANCH  19  22
HETATM   22  C   LIG     1      -3.642  -1.147   0.925  1.00  0.00     0.225 C 
BRANCH  22  23
HETATM   23  N   LIG     1      -4.607  -2.240   1.007  1.00  0.00    -0.345 N 
HETATM   24  C   LIG     1      -5.196  -2.833  -0.045  1.00  0.00     0.325 C 
HETATM   25  O   LIG     1      -4.988  -2.488  -1.210  1.00  0.00    -0.263 OA
HETATM   26  H   LIG     1      -4.824  -2.592   1.929  1.00  0.00     0.163 HD
BRANCH  24  27
HETATM   27  C   LIG     1      -6.160  -3.982   0.271  1.00  0.00     0.472 C 
HETATM   28  F   LIG     1      -5.503  -4.940   0.925  1.00  0.00    -0.162 F 
HETATM   29  F   LIG     1      -7.152  -3.526   1.036  1.00  0.00    -0.162 F 
HETATM   30  F   LIG     1      -6.665  -4.483  -0.858  1.00  0.00    -0.162 F 
ENDBRANCH  24  27
ENDBRANCH  22  23
ENDBRANCH  19  22
ENDBRANCH   6  18
BRANCH  13  31
HETATM   31  O   LIG     1       3.966  -0.254   1.609  1.00  0.00    -0.352 OA
HETATM   32  C   LIG     1       3.064  -0.259   2.704  1.00  0.00     0.210 C 
ENDBRANCH  13  31
BRANCH   1  33
HETATM   33  S   LIG     1       2.034   5.131  -1.033  1.00  0.00    -0.130 SA
HETATM   34  C   LIG     1       0.658   5.849  -0.094  1.00  0.00     0.095 C 
ENDBRANCH   1  33
BRANCH  12  35
HETATM   35  O   LIG     1       5.372  -2.765   1.859  1.00  0.00    -0.351 OA
HETATM   36  C   LIG     1       6.275  -1.719   2.191  1.00  0.00     0.210 C 
ENDBRANCH  12  35
BRANCH  11  37
HETATM   37  O   LIG     1       4.690  -4.812   0.234  1.00  0.00    -0.358 OA
HETATM   38  H   LIG     1       5.314  -4.794   0.944  1.00  0.00     0.217 HD
ENDBRANCH  11  37
TORSDOF 8
