REMARK  11 active torsions:
REMARK  status: ('A' for Active; 'I' for Inactive)
REMARK    1  A    between atoms: C_2  and  O_3 
REMARK    2  A    between atoms: C_2  and  O_5 
REMARK    3  A    between atoms: O_5  and  C_6 
REMARK    4  A    between atoms: C_6  and  C_7 
REMARK    5  A    between atoms: C_11  and  O_12 
REMARK    6  A    between atoms: C_14  and  O_15 
REMARK    7  A    between atoms: C_17  and  O_18 
REMARK    8  A    between atoms: O_18  and  C_19 
REMARK    9  A    between atoms: C_19  and  C_20 
REMARK   10  A    between atoms: C_20  and  O_21 
REMARK   11  A    between atoms: C_27  and  O_28 
ROOT
HETATM    1  C   LIG     1       0.675   0.935  -0.436  1.00  0.00     0.048 C 
HETATM    2  C   LIG     1       1.855   0.298  -1.182  1.00  0.00     0.051 C 
HETATM    3  C   LIG     1       1.896  -1.191  -0.943  1.00  0.00    -0.041 A 
HETATM    4  C   LIG     1       3.134  -1.854  -0.907  1.00  0.00     0.047 A 
HETATM    5  C   LIG     1       3.210  -3.240  -0.694  1.00  0.00     0.104 A 
HETATM    6  C   LIG     1       2.010  -3.952  -0.421  1.00  0.00     0.136 A 
HETATM    7  C   LIG     1       0.762  -3.278  -0.430  1.00  0.00     0.116 A 
HETATM    8  C   LIG     1       0.683  -1.891  -0.769  1.00  0.00     0.017 A 
HETATM    9  C   LIG     1      -0.609  -1.144  -0.949  1.00  0.00    -0.016 C 
HETATM   10  C   LIG     1      -1.630  -1.851  -1.479  1.00  0.00     0.016 C 
HETATM   11  C   LIG     1      -2.950  -1.639  -1.574  1.00  0.00     0.042 C 
HETATM   12  C   LIG     1      -3.740  -0.614  -1.189  1.00  0.00     0.118 C 
HETATM   13  C   LIG     1      -3.173   0.667  -0.725  1.00  0.00     0.205 C 
HETATM   14  C   LIG     1      -1.738   0.996  -0.595  1.00  0.00     0.066 C 
HETATM   15  C   LIG     1      -0.647   0.193  -0.680  1.00  0.00    -0.036 C 
HETATM   16  O   LIG     1      -3.959   1.563  -0.417  1.00  0.00    -0.285 OA
ENDROOT
BRANCH   1  17
HETATM   17  C   LIG     1       0.950   1.064   1.080  1.00  0.00     0.190 C 
BRANCH  17  18
HETATM   18  O   LIG     1       1.968   2.018   1.353  1.00  0.00    -0.297 OA
BRANCH  18  19
HETATM   19  C   LIG     1       1.664   3.324   1.450  1.00  0.00     0.406 C 
HETATM   20  O   LIG     1       0.547   3.829   1.319  1.00  0.00    -0.230 OA
BRANCH  19  21
HETATM   21  O   LIG     1       2.807   3.971   1.711  1.00  0.00    -0.303 OA
HETATM   22  C   LIG     1       2.789   5.380   1.863  1.00  0.00     0.215 C 
ENDBRANCH  19  21
ENDBRANCH  18  19
ENDBRANCH  17  18
ENDBRANCH   1  17
BRANCH   7  23
HETATM   23  O   LIG     1      -0.352  -4.013  -0.098  1.00  0.00    -0.345 OA
BRANCH  23  24
HETATM   24  C   LIG     1      -0.980  -3.641   1.127  1.00  0.00     0.202 C 
BRANCH  24  25
HETATM   25  C   LIG     1      -2.389  -4.250   1.160  1.00  0.00     0.193 C 
BRANCH  25  26
HETATM   26  O   LIG     1      -3.116  -3.823   2.304  1.00  0.00    -0.394 OA
HETATM   27  C   LIG     1      -3.724  -2.548   2.157  1.00  0.00     0.201 C 
ENDBRANCH  25  26
ENDBRANCH  24  25
ENDBRANCH  23  24
ENDBRANCH   7  23
BRANCH  12  28
HETATM   28  O   LIG     1      -5.121  -0.638  -1.221  1.00  0.00    -0.352 OA
HETATM   29  C   LIG     1      -5.780  -1.845  -1.586  1.00  0.00     0.210 C 
ENDBRANCH  12  28
BRANCH   5  30
HETATM   30  O   LIG     1       4.482  -3.775  -0.729  1.00  0.00    -0.353 OA
HETATM   31  C   LIG     1       4.651  -5.151  -1.036  1.00  0.00     0.210 C 
ENDBRANCH   5  30
BRANCH   6  32
HETATM   32  O   LIG     1       2.041  -5.297  -0.145  1.00  0.00    -0.351 OA
HETATM   33  C   LIG     1       1.865  -5.630   1.224  1.00  0.00     0.210 C 
ENDBRANCH   6  32
TORSDOF 11
