REMARK  8 active torsions:
REMARK  status: ('A' for Active; 'I' for Inactive)
REMARK    1  A    between atoms: S_2  and  C_3 
REMARK    2  A    between atoms: C_8  and  N_9 
REMARK       I    between atoms: N_9  and  C_10 
REMARK    3  A    between atoms: C_10  and  C_11 
REMARK    4  A    between atoms: C_11  and  N_12 
REMARK       I    between atoms: N_12  and  C_13 
REMARK    5  A    between atoms: C_13  and  C_14 
REMARK    6  A    between atoms: C_24  and  O_25 
REMARK    7  A    between atoms: C_27  and  O_32 
REMARK    8  A    between atoms: C_28  and  O_29 
ROOT
HETATM    1  C   LIG     1       1.725   4.007  -0.900  1.00  0.00     0.050 C 
HETATM    2  C   LIG     1       2.781   3.247  -0.567  1.00  0.00     0.023 C 
HETATM    3  C   LIG     1       2.981   1.924  -0.488  1.00  0.00     0.014 C 
HETATM    4  C   LIG     1       2.166   0.851  -0.587  1.00  0.00    -0.014 C 
HETATM    5  C   LIG     1       0.834   0.885  -0.892  1.00  0.00    -0.020 C 
HETATM    6  C   LIG     1       0.044  -0.440  -0.790  1.00  0.00     0.119 C 
HETATM    7  C   LIG     1       0.266  -1.315  -2.044  1.00  0.00     0.034 C 
HETATM    8  C   LIG     1       1.741  -1.409  -2.467  1.00  0.00     0.042 C 
HETATM    9  C   LIG     1       2.666  -1.546  -1.268  1.00  0.00    -0.041 A 
HETATM   10  C   LIG     1       3.323  -2.772  -1.060  1.00  0.00     0.047 A 
HETATM   11  C   LIG     1       4.194  -2.967   0.025  1.00  0.00     0.104 A 
HETATM   12  C   LIG     1       4.385  -1.907   0.955  1.00  0.00     0.136 A 
HETATM   13  C   LIG     1       3.689  -0.681   0.768  1.00  0.00     0.116 A 
HETATM   14  C   LIG     1       2.853  -0.468  -0.364  1.00  0.00     0.017 A 
HETATM   15  C   LIG     1       0.120   1.956  -1.331  1.00  0.00     0.066 C 
HETATM   16  C   LIG     1       0.486   3.385  -1.414  1.00  0.00     0.189 C 
HETATM   17  O   LIG     1      -0.339   4.109  -1.969  1.00  0.00    -0.287 OA
ENDROOT
BRANCH   6  18
HETATM   18  N   LIG     1      -1.387  -0.265  -0.515  1.00  0.00    -0.351 N 
HETATM   19  C   LIG     1      -2.208  -1.195  -0.002  1.00  0.00     0.235 C 
HETATM   20  O   LIG     1      -1.836  -2.328   0.307  1.00  0.00    -0.272 OA
HETATM   21  H   LIG     1      -1.781   0.639  -0.727  1.00  0.00     0.163 HD
BRANCH  19  22
HETATM   22  C   LIG     1      -3.664  -0.764   0.192  1.00  0.00     0.225 C 
BRANCH  22  23
HETATM   23  N   LIG     1      -4.498  -1.867   0.654  1.00  0.00    -0.345 N 
HETATM   24  C   LIG     1      -5.838  -1.841   0.711  1.00  0.00     0.325 C 
HETATM   25  O   LIG     1      -6.502  -0.857   0.382  1.00  0.00    -0.263 OA
HETATM   26  H   LIG     1      -4.018  -2.711   0.935  1.00  0.00     0.163 HD
BRANCH  24  27
HETATM   27  C   LIG     1      -6.524  -3.116   1.216  1.00  0.00     0.472 C 
HETATM   28  F   LIG     1      -6.201  -4.135   0.419  1.00  0.00    -0.162 F 
HETATM   29  F   LIG     1      -6.109  -3.378   2.455  1.00  0.00    -0.162 F 
HETATM   30  F   LIG     1      -7.848  -2.957   1.216  1.00  0.00    -0.162 F 
ENDBRANCH  24  27
ENDBRANCH  22  23
ENDBRANCH  19  22
ENDBRANCH   6  18
BRANCH  13  31
HETATM   31  O   LIG     1       3.774   0.294   1.730  1.00  0.00    -0.352 OA
HETATM   32  C   LIG     1       2.812   0.145   2.762  1.00  0.00     0.210 C 
ENDBRANCH  13  31
BRANCH   1  33
HETATM   33  S   LIG     1       1.951   5.769  -0.816  1.00  0.00    -0.130 SA
HETATM   34  C   LIG     1       0.454   6.393  -0.002  1.00  0.00     0.095 C 
ENDBRANCH   1  33
BRANCH  12  35
HETATM   35  O   LIG     1       5.179  -2.106   2.062  1.00  0.00    -0.351 OA
HETATM   36  C   LIG     1       6.163  -1.115   2.331  1.00  0.00     0.210 C 
ENDBRANCH  12  35
BRANCH  11  37
HETATM   37  O   LIG     1       4.776  -4.218   0.084  1.00  0.00    -0.353 OA
HETATM   38  C   LIG     1       5.996  -4.396   0.788  1.00  0.00     0.210 C 
ENDBRANCH  11  37
TORSDOF 8
