REMARK  9 active torsions:
REMARK  status: ('A' for Active; 'I' for Inactive)
REMARK    1  A    between atoms: C_2  and  C_3 
REMARK    2  A    between atoms: C_3  and  O_4 
REMARK    3  A    between atoms: O_4  and  C_5 
REMARK    4  A    between atoms: C_10  and  C_13 
REMARK    5  A    between atoms: C_13  and  C_14 
REMARK    6  A    between atoms: C_14  and  O_15 
REMARK    7  A    between atoms: C_18  and  O_19 
REMARK    8  A    between atoms: C_21  and  O_22 
REMARK    9  A    between atoms: C_28  and  S_29 
ROOT
HETATM    1  C   LIG     1      -2.251  -2.818   0.174  1.00  0.00     0.105 A 
HETATM    2  C   LIG     1      -1.998  -1.889  -0.849  1.00  0.00     0.047 A 
HETATM    3  C   LIG     1      -0.697  -1.406  -1.092  1.00  0.00    -0.041 A 
HETATM    4  C   LIG     1      -0.495  -0.404  -2.221  1.00  0.00     0.040 C 
HETATM    5  C   LIG     1      -0.091   0.988  -1.699  1.00  0.00     0.014 C 
HETATM    6  C   LIG     1       0.923   0.931  -0.541  1.00  0.00     0.029 C 
HETATM    7  C   LIG     1       2.050  -0.081  -0.853  1.00  0.00    -0.038 C 
HETATM    8  C   LIG     1       3.162   0.448  -1.426  1.00  0.00     0.064 C 
HETATM    9  C   LIG     1      -1.186  -3.206   1.024  1.00  0.00     0.136 A 
HETATM   10  C   LIG     1       0.121  -2.722   0.794  1.00  0.00     0.116 A 
HETATM   11  C   LIG     1       0.398  -1.849  -0.297  1.00  0.00     0.017 A 
HETATM   12  C   LIG     1       1.796  -1.402  -0.614  1.00  0.00    -0.016 C 
HETATM   13  C   LIG     1       2.706  -2.399  -0.658  1.00  0.00     0.014 C 
HETATM   14  C   LIG     1       4.027  -2.431  -0.886  1.00  0.00     0.023 C 
HETATM   15  C   LIG     1       4.918  -1.516  -1.298  1.00  0.00     0.050 C 
HETATM   16  C   LIG     1       4.471  -0.170  -1.720  1.00  0.00     0.189 C 
HETATM   17  O   LIG     1       5.247   0.521  -2.377  1.00  0.00    -0.287 OA
ENDROOT
BRANCH   6  18
HETATM   18  C   LIG     1       1.365   2.346  -0.078  1.00  0.00     0.120 C 
BRANCH  18  19
HETATM   19  C   LIG     1       2.314   2.336   1.126  1.00  0.00     0.259 C 
HETATM   20  O   LIG     1       3.438   2.834   1.058  1.00  0.00    -0.265 OA
BRANCH  19  21
HETATM   21  O   LIG     1       1.782   1.740   2.206  1.00  0.00    -0.326 OA
HETATM   22  C   LIG     1       2.550   1.628   3.390  1.00  0.00     0.213 C 
ENDBRANCH  19  21
ENDBRANCH  18  19
ENDBRANCH   6  18
BRANCH  10  23
HETATM   23  O   LIG     1       1.095  -3.101   1.688  1.00  0.00    -0.352 OA
HETATM   24  C   LIG     1       1.547  -2.057   2.541  1.00  0.00     0.210 C 
ENDBRANCH  10  23
BRANCH  15  25
HETATM   25  S   LIG     1       6.610  -2.049  -1.430  1.00  0.00    -0.130 SA
HETATM   26  C   LIG     1       7.581  -0.695  -0.710  1.00  0.00     0.095 C 
ENDBRANCH  15  25
BRANCH   1  27
HETATM   27  O   LIG     1      -3.546  -3.269   0.296  1.00  0.00    -0.345 OA
BRANCH  27  28
HETATM   28  C   LIG     1      -3.731  -4.655   0.554  1.00  0.00     0.202 C 
BRANCH  28  29
HETATM   29  C   LIG     1      -5.047  -5.122  -0.027  1.00  0.00    -0.011 C 
HETATM   30  C   LIG     1      -5.174  -6.096  -0.941  1.00  0.00     0.009 C 
ENDBRANCH  28  29
ENDBRANCH  27  28
ENDBRANCH   1  27
BRANCH   9  31
HETATM   31  O   LIG     1      -1.390  -4.027   2.104  1.00  0.00    -0.351 OA
HETATM   32  C   LIG     1      -1.963  -3.361   3.219  1.00  0.00     0.210 C 
ENDBRANCH   9  31
TORSDOF 9
