REMARK  8 active torsions:
REMARK  status: ('A' for Active; 'I' for Inactive)
REMARK    1  A    between atoms: O_2  and  C_3 
REMARK    2  A    between atoms: C_3  and  C_4 
REMARK    3  A    between atoms: C_4  and  O_5 
REMARK    4  A    between atoms: O_5  and  C_6 
REMARK    5  A    between atoms: C_11  and  N_22 
REMARK    6  A    between atoms: C_15  and  O_16 
REMARK       I    between atoms: N_22  and  C_23 
REMARK    7  A    between atoms: C_27  and  O_28 
REMARK    8  A    between atoms: C_30  and  O_31 
ROOT
HETATM    1  C   LIG     1       1.413  -1.496   0.109  1.00  0.00     0.116 A 
HETATM    2  C   LIG     1       0.992  -0.330   0.806  1.00  0.00     0.017 A 
HETATM    3  C   LIG     1       1.981   0.437   1.475  1.00  0.00    -0.041 A 
HETATM    4  C   LIG     1       1.610   1.724   2.195  1.00  0.00     0.042 C 
HETATM    5  C   LIG     1       1.192   2.830   1.213  1.00  0.00     0.034 C 
HETATM    6  C   LIG     1       0.321   2.316   0.045  1.00  0.00     0.119 C 
HETATM    7  C   LIG     1      -0.797   1.377   0.557  1.00  0.00    -0.020 C 
HETATM    8  C   LIG     1      -2.021   1.952   0.702  1.00  0.00     0.068 C 
HETATM    9  C   LIG     1      -3.334   1.352   1.015  1.00  0.00     0.205 C 
HETATM   10  C   LIG     1      -3.621  -0.080   1.223  1.00  0.00     0.118 C 
HETATM   11  C   LIG     1      -2.632  -0.994   1.310  1.00  0.00     0.042 C 
HETATM   12  C   LIG     1      -1.300  -0.908   1.190  1.00  0.00     0.016 C 
HETATM   13  C   LIG     1      -0.452   0.084   0.838  1.00  0.00    -0.014 C 
HETATM   14  O   LIG     1      -4.276   2.140   1.094  1.00  0.00    -0.285 OA
HETATM   15  C   LIG     1       3.326   0.021   1.484  1.00  0.00     0.047 A 
HETATM   16  C   LIG     1       3.737  -1.161   0.825  1.00  0.00     0.104 A 
HETATM   17  C   LIG     1       2.764  -1.910   0.111  1.00  0.00     0.136 A 
ENDROOT
BRANCH   1  18
HETATM   18  O   LIG     1       0.526  -2.244  -0.626  1.00  0.00    -0.345 OA
BRANCH  18  19
HETATM   19  C   LIG     1       0.248  -1.698  -1.908  1.00  0.00     0.202 C 
BRANCH  19  20
HETATM   20  C   LIG     1      -0.616  -2.670  -2.724  1.00  0.00     0.193 C 
BRANCH  20  21
HETATM   21  O   LIG     1      -1.983  -2.595  -2.346  1.00  0.00    -0.394 OA
HETATM   22  C   LIG     1      -2.342  -3.501  -1.316  1.00  0.00     0.201 C 
ENDBRANCH  20  21
ENDBRANCH  19  20
ENDBRANCH  18  19
ENDBRANCH   1  18
BRANCH  17  23
HETATM   23  O   LIG     1       3.045  -3.063  -0.593  1.00  0.00    -0.351 OA
HETATM   24  C   LIG     1       4.242  -3.103  -1.356  1.00  0.00     0.210 C 
ENDBRANCH  17  23
BRANCH  16  25
HETATM   25  O   LIG     1       5.037  -1.623   0.867  1.00  0.00    -0.353 OA
HETATM   26  C   LIG     1       6.011  -0.872   1.577  1.00  0.00     0.210 C 
ENDBRANCH  16  25
BRANCH   6  27
HETATM   27  N   LIG     1      -0.158   3.429  -0.784  1.00  0.00    -0.353 N 
HETATM   28  C   LIG     1       0.581   4.135  -1.655  1.00  0.00     0.214 C 
HETATM   29  C   LIG     1      -0.143   5.248  -2.404  1.00  0.00     0.117 C 
HETATM   30  O   LIG     1       1.774   3.924  -1.864  1.00  0.00    -0.274 OA
HETATM   31  H   LIG     1      -1.133   3.676  -0.693  1.00  0.00     0.163 HD
ENDBRANCH   6  27
BRANCH  10  32
HETATM   32  O   LIG     1      -4.967  -0.369   1.345  1.00  0.00    -0.352 OA
HETATM   33  C   LIG     1      -5.371  -1.725   1.483  1.00  0.00     0.210 C 
ENDBRANCH  10  32
TORSDOF 8
