REMARK  8 active torsions:
REMARK  status: ('A' for Active; 'I' for Inactive)
REMARK    1  A    between atoms: O_2  and  C_3 
REMARK    2  A    between atoms: C_8  and  N_9 
REMARK       I    between atoms: N_9  and  C_10 
REMARK    3  A    between atoms: C_10  and  C_11 
REMARK    4  A    between atoms: C_11  and  N_12 
REMARK       I    between atoms: N_12  and  C_13 
REMARK    5  A    between atoms: C_13  and  C_14 
REMARK    6  A    between atoms: C_24  and  O_25 
REMARK    7  A    between atoms: C_27  and  O_32 
REMARK    8  A    between atoms: C_28  and  O_29 
ROOT
HETATM    1  C   LIG     1       1.563   4.100  -0.549  1.00  0.00     0.118 C 
HETATM    2  C   LIG     1       2.646   3.329  -0.313  1.00  0.00     0.042 C 
HETATM    3  C   LIG     1       2.823   2.002  -0.251  1.00  0.00     0.016 C 
HETATM    4  C   LIG     1       1.987   0.941  -0.291  1.00  0.00    -0.014 C 
HETATM    5  C   LIG     1       0.630   0.991  -0.463  1.00  0.00    -0.020 C 
HETATM    6  C   LIG     1      -0.154  -0.335  -0.327  1.00  0.00     0.119 C 
HETATM    7  C   LIG     1      -0.060  -1.169  -1.624  1.00  0.00     0.034 C 
HETATM    8  C   LIG     1       1.367  -1.259  -2.188  1.00  0.00     0.042 C 
HETATM    9  C   LIG     1       2.400  -1.437  -1.086  1.00  0.00    -0.041 A 
HETATM   10  C   LIG     1       3.062  -2.673  -0.976  1.00  0.00     0.047 A 
HETATM   11  C   LIG     1       4.028  -2.906   0.017  1.00  0.00     0.104 A 
HETATM   12  C   LIG     1       4.313  -1.877   0.956  1.00  0.00     0.136 A 
HETATM   13  C   LIG     1       3.614  -0.641   0.871  1.00  0.00     0.116 A 
HETATM   14  C   LIG     1       2.679  -0.389  -0.172  1.00  0.00     0.017 A 
HETATM   15  C   LIG     1      -0.119   2.081  -0.779  1.00  0.00     0.068 C 
HETATM   16  C   LIG     1       0.245   3.509  -0.853  1.00  0.00     0.205 C 
HETATM   17  O   LIG     1      -0.658   4.274  -1.190  1.00  0.00    -0.285 OA
ENDROOT
BRANCH   6  18
HETATM   18  N   LIG     1      -1.551  -0.169   0.091  1.00  0.00    -0.351 N 
HETATM   19  C   LIG     1      -2.325  -1.117   0.642  1.00  0.00     0.235 C 
HETATM   20  O   LIG     1      -1.928  -2.257   0.884  1.00  0.00    -0.272 OA
HETATM   21  H   LIG     1      -1.962   0.742  -0.054  1.00  0.00     0.163 HD
BRANCH  19  22
HETATM   22  C   LIG     1      -3.758  -0.698   0.991  1.00  0.00     0.225 C 
BRANCH  22  23
HETATM   23  N   LIG     1      -4.696  -1.819   0.969  1.00  0.00    -0.345 N 
HETATM   24  C   LIG     1      -5.260  -2.333  -0.136  1.00  0.00     0.325 C 
HETATM   25  O   LIG     1      -5.052  -1.885  -1.265  1.00  0.00    -0.263 OA
HETATM   26  H   LIG     1      -4.910  -2.253   1.855  1.00  0.00     0.163 HD
BRANCH  24  27
HETATM   27  C   LIG     1      -6.196  -3.529   0.071  1.00  0.00     0.472 C 
HETATM   28  F   LIG     1      -5.519  -4.524   0.645  1.00  0.00    -0.162 F 
HETATM   29  F   LIG     1      -7.205  -3.167   0.864  1.00  0.00    -0.162 F 
HETATM   30  F   LIG     1      -6.681  -3.942  -1.101  1.00  0.00    -0.162 F 
ENDBRANCH  24  27
ENDBRANCH  22  23
ENDBRANCH  19  22
ENDBRANCH   6  18
BRANCH  13  31
HETATM   31  O   LIG     1       3.795   0.304   1.849  1.00  0.00    -0.352 OA
HETATM   32  C   LIG     1       2.934   0.128   2.962  1.00  0.00     0.210 C 
ENDBRANCH  13  31
BRANCH   1  33
HETATM   33  O   LIG     1       1.573   5.482  -0.566  1.00  0.00    -0.352 OA
HETATM   34  C   LIG     1       2.783   6.167  -0.268  1.00  0.00     0.210 C 
ENDBRANCH   1  33
BRANCH  12  35
HETATM   35  O   LIG     1       5.204  -2.113   1.980  1.00  0.00    -0.351 OA
HETATM   36  C   LIG     1       6.217  -1.137   2.185  1.00  0.00     0.210 C 
ENDBRANCH  12  35
BRANCH  11  37
HETATM   37  O   LIG     1       4.602  -4.162  -0.015  1.00  0.00    -0.353 OA
HETATM   38  C   LIG     1       5.880  -4.369   0.567  1.00  0.00     0.210 C 
ENDBRANCH  11  37
TORSDOF 8
