REMARK  7 active torsions:
REMARK  status: ('A' for Active; 'I' for Inactive)
REMARK    1  A    between atoms: C_2  and  O_3 
REMARK    2  A    between atoms: O_3  and  C_4 
REMARK    3  A    between atoms: C_9  and  N_12 
REMARK       I    between atoms: N_12  and  C_13 
REMARK    4  A    between atoms: C_13  and  O_14 
REMARK    5  A    between atoms: C_17  and  O_18 
REMARK    6  A    between atoms: C_20  and  O_21 
REMARK    7  A    between atoms: C_27  and  S_28 
ROOT
HETATM    1  C   LIG     1      -2.714  -2.681   0.031  1.00  0.00     0.105 A 
HETATM    2  C   LIG     1      -2.363  -1.688  -0.899  1.00  0.00     0.047 A 
HETATM    3  C   LIG     1      -1.026  -1.299  -1.094  1.00  0.00    -0.041 A 
HETATM    4  C   LIG     1      -0.724  -0.221  -2.122  1.00  0.00     0.042 C 
HETATM    5  C   LIG     1      -0.263   1.088  -1.460  1.00  0.00     0.035 C 
HETATM    6  C   LIG     1       0.692   0.865  -0.267  1.00  0.00     0.121 C 
HETATM    7  C   LIG     1       1.786  -0.170  -0.616  1.00  0.00    -0.020 C 
HETATM    8  C   LIG     1       2.978   0.352  -1.011  1.00  0.00     0.066 C 
HETATM    9  C   LIG     1      -1.693  -3.277   0.821  1.00  0.00     0.136 A 
HETATM   10  C   LIG     1      -0.345  -2.855   0.653  1.00  0.00     0.116 A 
HETATM   11  C   LIG     1       0.013  -1.892  -0.331  1.00  0.00     0.017 A 
HETATM   12  C   LIG     1       1.447  -1.493  -0.544  1.00  0.00    -0.014 C 
HETATM   13  C   LIG     1       2.298  -2.533  -0.681  1.00  0.00     0.014 C 
HETATM   14  C   LIG     1       3.626  -2.628  -0.836  1.00  0.00     0.023 C 
HETATM   15  C   LIG     1       4.601  -1.729  -1.043  1.00  0.00     0.050 C 
HETATM   16  C   LIG     1       4.273  -0.307  -1.278  1.00  0.00     0.189 C 
HETATM   17  O   LIG     1       5.149   0.421  -1.741  1.00  0.00    -0.287 OA
ENDROOT
BRANCH   6  18
HETATM   18  N   LIG     1       1.212   2.142   0.235  1.00  0.00    -0.328 N 
HETATM   19  C   LIG     1       0.473   3.041   0.985  1.00  0.00     0.360 C 
HETATM   20  O   LIG     1      -0.701   2.915   1.337  1.00  0.00    -0.239 OA
HETATM   21  H   LIG     1       2.169   2.397   0.041  1.00  0.00     0.165 HD
BRANCH  19  22
HETATM   22  O   LIG     1       1.254   4.092   1.272  1.00  0.00    -0.309 OA
HETATM   23  C   LIG     1       0.732   5.164   2.038  1.00  0.00     0.215 C 
ENDBRANCH  19  22
ENDBRANCH   6  18
BRANCH  10  24
HETATM   24  O   LIG     1       0.621  -3.339   1.500  1.00  0.00    -0.352 OA
HETATM   25  C   LIG     1       0.756  -2.574   2.687  1.00  0.00     0.210 C 
ENDBRANCH  10  24
BRANCH  15  26
HETATM   26  S   LIG     1       6.260  -2.362  -1.151  1.00  0.00    -0.130 SA
HETATM   27  C   LIG     1       7.256  -1.228  -0.143  1.00  0.00     0.095 C 
ENDBRANCH  15  26
BRANCH   1  28
HETATM   28  O   LIG     1      -4.064  -2.966   0.096  1.00  0.00    -0.349 OA
BRANCH  28  29
HETATM   29  C   LIG     1      -4.499  -4.231   0.571  1.00  0.00     0.171 C 
HETATM   30  C   LIG     1      -5.938  -4.457   0.102  1.00  0.00     0.034 C 
ENDBRANCH  28  29
ENDBRANCH   1  28
BRANCH   9  31
HETATM   31  O   LIG     1      -2.027  -4.198   1.789  1.00  0.00    -0.351 OA
HETATM   32  C   LIG     1      -1.291  -5.415   1.797  1.00  0.00     0.210 C 
ENDBRANCH   9  31
TORSDOF 7
