REMARK  6 active torsions:
REMARK  status: ('A' for Active; 'I' for Inactive)
REMARK    1  A    between atoms: C_5  and  C_8 
REMARK    2  A    between atoms: C_8  and  C_10 
REMARK    3  A    between atoms: C_10  and  C_11 
REMARK    4  A    between atoms: C_11  and  C_12 
REMARK    5  A    between atoms: C_12  and  N_13 
REMARK    6  A    between atoms: C_16  and  N_17 
ROOT
HETATM    1  N   LIG     1     -10.582   2.589  -0.138  1.00  0.00    -0.068 N 
HETATM    2  C   LIG     1     -11.360   1.367  -0.555  1.00  0.00     0.264 C 
HETATM    3  C   LIG     1     -12.848   1.548  -0.517  1.00  0.00     0.026 C 
HETATM    4  C   LIG     1     -13.504   2.711  -0.307  1.00  0.00     0.021 C 
HETATM    5  C   LIG     1     -12.651   3.954  -0.099  1.00  0.00     0.085 C 
HETATM    6  C   LIG     1     -11.234   3.841  -0.667  1.00  0.00     0.241 C 
HETATM    7  H   LIG     1     -10.605   2.633   0.891  1.00  0.00     0.280 HD
ENDROOT
BRANCH   1   8
HETATM    8  C   LIG     1      -9.113   2.526  -0.525  1.00  0.00     0.235 C 
BRANCH   8   9
HETATM    9  C   LIG     1      -8.391   1.443   0.268  1.00  0.00     0.035 C 
BRANCH   9  10
HETATM   10  C   LIG     1      -6.891   1.442  -0.038  1.00  0.00     0.085 C 
BRANCH  10  11
HETATM   11  C   LIG     1      -6.161   0.368   0.749  1.00  0.00     0.159 C 
HETATM   12  O   LIG     1      -6.730  -0.319   1.594  1.00  0.00    -0.292 OA
BRANCH  11  13
HETATM   13  C   LIG     1      -4.708   0.147   0.487  1.00  0.00     0.010 A 
HETATM   14  C   LIG     1      -3.976   0.960  -0.390  1.00  0.00     0.018 A 
HETATM   15  C   LIG     1      -2.619   0.710  -0.605  1.00  0.00     0.043 A 
HETATM   16  C   LIG     1      -1.998  -0.346   0.054  1.00  0.00     0.116 A 
HETATM   17  F   LIG     1      -0.697  -0.580  -0.157  1.00  0.00    -0.206 F 
HETATM   18  C   LIG     1      -2.708  -1.160   0.929  1.00  0.00     0.043 A 
HETATM   19  C   LIG     1      -4.064  -0.913   1.147  1.00  0.00     0.018 A 
ENDBRANCH  11  13
ENDBRANCH  10  11
ENDBRANCH   9  10
ENDBRANCH   8   9
ENDBRANCH   1   8
BRANCH   4  20
HETATM   20  N   LIG     1     -14.895   2.807  -0.329  1.00  0.00    -0.264 N 
HETATM   21  C   LIG     1     -15.671   3.683   0.204  1.00  0.00     0.073 A 
HETATM   22  C   LIG     1     -15.454   4.833   1.085  1.00  0.00     0.032 A 
HETATM   23  C   LIG     1     -17.076   3.330  -0.193  1.00  0.00     0.089 A 
HETATM   24  C   LIG     1     -16.535   5.535   1.449  1.00  0.00     0.002 A 
HETATM   25  C   LIG     1     -17.883   5.220   1.026  1.00  0.00     0.002 A 
HETATM   26  C   LIG     1     -18.183   4.172   0.251  1.00  0.00     0.034 A 
HETATM   27  N   LIG     1     -17.139   2.266  -0.923  1.00  0.00    -0.192 NA
HETATM   28  C   LIG     1     -15.862   1.811  -1.111  1.00  0.00     0.354 A 
HETATM   29  O   LIG     1     -15.417   0.885  -1.762  1.00  0.00    -0.244 OA
ENDBRANCH   4  20
TORSDOF 6
