REMARK  10 active torsions:
REMARK  status: ('A' for Active; 'I' for Inactive)
REMARK    1  A    between atoms: C_2  and  C_3 
REMARK    2  A    between atoms: C_2  and  C_26 
REMARK    3  A    between atoms: C_3  and  C_4 
REMARK    4  A    between atoms: C_4  and  C_5 
REMARK    5  A    between atoms: C_5  and  N_6 
REMARK    6  A    between atoms: C_9  and  O_10 
REMARK    7  A    between atoms: O_10  and  C_11 
REMARK    8  A    between atoms: C_11  and  C_12 
REMARK    9  A    between atoms: C_11  and  C_18 
REMARK   10  A    between atoms: C_29  and  C_32 
ROOT
HETATM    1  N   LIG     1      -5.200   2.075  -0.646  1.00  0.00    -0.071 N 
HETATM    2  C   LIG     1      -5.294   0.667  -1.209  1.00  0.00     0.237 C 
HETATM    3  C   LIG     1      -6.729   0.285  -1.547  1.00  0.00     0.059 C 
HETATM    4  C   LIG     1      -7.735   0.913  -0.590  1.00  0.00     0.126 C 
HETATM    5  C   LIG     1      -7.656   2.443  -0.655  1.00  0.00     0.059 C 
HETATM    6  C   LIG     1      -6.310   2.968  -1.140  1.00  0.00     0.237 C 
HETATM    7  H   LIG     1      -5.305   2.007   0.377  1.00  0.00     0.279 HD
ENDROOT
BRANCH   1   8
HETATM    8  C   LIG     1      -3.838   2.709  -0.878  1.00  0.00     0.235 C 
BRANCH   8   9
HETATM    9  C   LIG     1      -2.758   1.966  -0.097  1.00  0.00     0.035 C 
BRANCH   9  10
HETATM   10  C   LIG     1      -1.386   2.621  -0.283  1.00  0.00     0.085 C 
BRANCH  10  11
HETATM   11  C   LIG     1      -0.305   1.885   0.490  1.00  0.00     0.159 C 
HETATM   12  O   LIG     1      -0.570   0.980   1.278  1.00  0.00    -0.292 OA
BRANCH  11  13
HETATM   13  C   LIG     1       1.121   2.279   0.288  1.00  0.00     0.010 A 
HETATM   14  C   LIG     1       1.492   3.378  -0.489  1.00  0.00     0.015 A 
HETATM   15  C   LIG     1       2.846   3.705  -0.653  1.00  0.00     0.009 A 
HETATM   16  C   LIG     1       3.864   2.949  -0.049  1.00  0.00    -0.051 A 
HETATM   17  C   LIG     1       3.468   1.847   0.733  1.00  0.00     0.009 A 
HETATM   18  C   LIG     1       2.119   1.517   0.901  1.00  0.00     0.015 A 
BRANCH  16  19
HETATM   19  C   LIG     1       5.359   3.282  -0.213  1.00  0.00    -0.024 C 
HETATM   20  C   LIG     1       5.982   3.564   1.171  1.00  0.00     0.019 C 
HETATM   21  C   LIG     1       5.630   4.520  -1.097  1.00  0.00     0.019 C 
HETATM   22  C   LIG     1       6.088   2.086  -0.865  1.00  0.00     0.019 C 
ENDBRANCH  16  19
ENDBRANCH  11  13
ENDBRANCH  10  11
ENDBRANCH   9  10
ENDBRANCH   8   9
ENDBRANCH   1   8
BRANCH   4  23
HETATM   23  O   LIG     1      -9.030   0.445  -0.965  1.00  0.00    -0.371 OA
BRANCH  23  24
HETATM   24  C   LIG     1     -10.069   0.668   0.007  1.00  0.00     0.188 C 
BRANCH  24  25
HETATM   25  C   LIG     1     -10.798  -0.637   0.305  1.00  0.00    -0.025 A 
HETATM   26  C   LIG     1     -11.573  -0.754   1.472  1.00  0.00     0.010 A 
HETATM   27  C   LIG     1     -12.264  -1.935   1.758  1.00  0.00     0.001 A 
HETATM   28  C   LIG     1     -12.190  -3.016   0.882  1.00  0.00     0.000 A 
HETATM   29  C   LIG     1     -11.429  -2.916  -0.281  1.00  0.00     0.001 A 
HETATM   30  C   LIG     1     -10.741  -1.735  -0.570  1.00  0.00     0.010 A 
ENDBRANCH  24  25
BRANCH  24  31
HETATM   31  C   LIG     1     -11.002   1.748  -0.513  1.00  0.00    -0.025 A 
HETATM   32  C   LIG     1     -11.493   1.710  -1.829  1.00  0.00     0.010 A 
HETATM   33  C   LIG     1     -12.348   2.708  -2.300  1.00  0.00     0.001 A 
HETATM   34  C   LIG     1     -12.727   3.754  -1.462  1.00  0.00     0.000 A 
HETATM   35  C   LIG     1     -12.256   3.802  -0.151  1.00  0.00     0.001 A 
HETATM   36  C   LIG     1     -11.400   2.805   0.322  1.00  0.00     0.010 A 
ENDBRANCH  24  31
ENDBRANCH  23  24
ENDBRANCH   4  23
TORSDOF 10
