REMARK  6 active torsions:
REMARK  status: ('A' for Active; 'I' for Inactive)
REMARK    1  A    between atoms: C_2  and  O_3 
REMARK    2  A    between atoms: C_2  and  C_18 
REMARK    3  A    between atoms: O_3  and  C_4 
REMARK    4  A    between atoms: C_12  and  C_13 
REMARK    5  A    between atoms: C_13  and  O_15 
REMARK    6  A    between atoms: O_15  and  C_16 
ROOT
HETATM    1  C   LIG     1      -1.470   2.795   0.267  1.00  0.00     0.149 C 
HETATM    2  C   LIG     1      -2.174   3.326  -1.012  1.00  0.00     0.066 C 
HETATM    3  C   LIG     1      -3.496   3.769  -0.531  1.00  0.00     0.191 C 
HETATM    4  N   LIG     1      -4.440   2.712  -0.396  1.00  0.00    -0.065 N 
HETATM    5  C   LIG     1      -4.347   1.348  -0.976  1.00  0.00     0.270 C 
HETATM    6  C   LIG     1      -3.865   2.962   1.280  1.00  0.00     0.204 C 
HETATM    7  C   LIG     1      -3.610   4.763   1.347  1.00  0.00     0.036 C 
HETATM    8  C   LIG     1      -3.491   5.246  -0.363  1.00  0.00     0.035 C 
HETATM    9  C   LIG     1      -2.461   2.299   1.388  1.00  0.00     0.146 C 
HETATM   10  H   LIG     1      -5.448   2.963  -0.419  1.00  0.00     0.280 HD
ENDROOT
BRANCH   1  11
HETATM   11  O   LIG     1      -0.459   1.852  -0.114  1.00  0.00    -0.311 OA
BRANCH  11  12
HETATM   12  C   LIG     1       0.511   1.610   0.809  1.00  0.00     0.293 C 
HETATM   13  O   LIG     1       0.566   2.111   1.924  1.00  0.00    -0.259 OA
BRANCH  12  14
HETATM   14  C   LIG     1       1.519   0.664   0.290  1.00  0.00     0.039 A 
HETATM   15  C   LIG     1       1.339  -0.039  -0.908  1.00  0.00     0.017 A 
HETATM   16  C   LIG     1       2.326  -0.921  -1.357  1.00  0.00     0.001 A 
HETATM   17  C   LIG     1       3.492  -1.105  -0.614  1.00  0.00     0.000 A 
HETATM   18  C   LIG     1       3.675  -0.412   0.582  1.00  0.00     0.001 A 
HETATM   19  C   LIG     1       2.691   0.469   1.035  1.00  0.00     0.017 A 
ENDBRANCH  12  14
ENDBRANCH  11  12
ENDBRANCH   1  11
BRANCH   9  20
HETATM   20  C   LIG     1      -2.602   0.804   1.583  1.00  0.00     0.267 C 
HETATM   21  O   LIG     1      -2.231  -0.060   0.804  1.00  0.00    -0.265 OA
BRANCH  20  22
HETATM   22  O   LIG     1      -3.240   0.565   2.765  1.00  0.00    -0.321 OA
BRANCH  22  23
HETATM   23  C   LIG     1      -3.423  -0.823   3.082  1.00  0.00     0.174 C 
HETATM   24  C   LIG     1      -4.126  -0.913   4.422  1.00  0.00     0.034 C 
ENDBRANCH  22  23
ENDBRANCH  20  22
ENDBRANCH   9  20
TORSDOF 6
