REMARK  0 active torsions:
REMARK  status: ('A' for Active; 'I' for Inactive)
ROOT
HETATM    1  O   LIG     1      -0.414  -0.043   0.001  1.00  0.00    -0.246 OA
HETATM    2  C   LIG     1      -1.648  -0.028   0.000  1.00  0.00     0.332 A 
HETATM    3  N   LIG     1      -2.399  -1.213  -0.001  1.00  0.00    -0.286 N 
HETATM    4  C   LIG     1      -1.739  -2.508   0.000  1.00  0.00     0.163 C 
HETATM    5  C   LIG     1      -3.775  -1.143  -0.001  1.00  0.00     0.167 A 
HETATM    6  N   LIG     1      -4.633  -2.204  -0.002  1.00  0.00    -0.223 NA
HETATM    7  C   LIG     1      -5.831  -1.655  -0.003  1.00  0.00     0.212 A 
HETATM    8  N   LIG     1      -5.762  -0.287  -0.004  1.00  0.00    -0.338 N 
HETATM    9  C   LIG     1      -6.883   0.620  -0.007  1.00  0.00     0.157 C 
HETATM   10  C   LIG     1      -4.438   0.049  -0.002  1.00  0.00     0.151 A 
HETATM   11  C   LIG     1      -3.779   1.310  -0.002  1.00  0.00     0.282 A 
HETATM   12  O   LIG     1      -4.375   2.383  -0.003  1.00  0.00    -0.265 OA
HETATM   13  N   LIG     1      -2.378   1.187  -0.001  1.00  0.00    -0.269 N 
HETATM   14  C   LIG     1      -1.634   2.435  -0.001  1.00  0.00     0.164 C 
ENDROOT
TORSDOF 0
