REMARK  13 active torsions:
REMARK  status: ('A' for Active; 'I' for Inactive)
REMARK    1  A    between atoms: N_3  and  C_5 
REMARK    2  A    between atoms: N_3  and  C_7 
REMARK    3  A    between atoms: N_3  and  C_11 
REMARK    4  A    between atoms: N_4  and  C_23 
REMARK    5  A    between atoms: C_5  and  C_6 
REMARK    6  A    between atoms: C_6  and  C_8 
REMARK    7  A    between atoms: C_7  and  C_9 
REMARK    8  A    between atoms: C_8  and  C_10 
REMARK    9  A    between atoms: C_9  and  C_12 
REMARK   10  A    between atoms: C_10  and  C_13 
REMARK   11  A    between atoms: C_12  and  C_14 
REMARK   12  A    between atoms: C_13  and  C_15 
REMARK   13  A    between atoms: C_14  and  C_17 
ROOT
HETATM    1  C   LIG     1      -3.522  -2.422   0.324  1.00  0.00     0.234 C 
ENDROOT
BRANCH   1   2
HETATM    2  N   LIG     1      -3.771  -1.117  -0.420  1.00  0.00    -0.071 N 
HETATM    3  H   LIG     1      -2.858  -0.755  -0.717  1.00  0.00     0.279 HD
BRANCH   2   4
HETATM    4  C   LIG     1      -4.430  -0.065   0.465  1.00  0.00     0.234 C 
BRANCH   4   5
HETATM    5  C   LIG     1      -4.028   1.352   0.049  1.00  0.00     0.028 C 
BRANCH   5   6
HETATM    6  C   LIG     1      -2.542   1.652   0.270  1.00  0.00     0.002 C 
BRANCH   6   7
HETATM    7  C   LIG     1      -2.220   3.130   0.040  1.00  0.00     0.000 C 
BRANCH   7   8
HETATM    8  C   LIG     1      -0.727   3.403   0.239  1.00  0.00    -0.000 C 
BRANCH   8   9
HETATM    9  C   LIG     1      -0.392   4.875   0.008  1.00  0.00    -0.005 C 
HETATM   10  C   LIG     1       1.093   5.143   0.199  1.00  0.00     0.005 C 
ENDBRANCH   8   9
ENDBRANCH   7   8
ENDBRANCH   6   7
ENDBRANCH   5   6
ENDBRANCH   4   5
ENDBRANCH   2   4
BRANCH   2  11
HETATM   11  C   LIG     1      -4.574  -1.339  -1.697  1.00  0.00     0.230 C 
HETATM   12  C   LIG     1      -3.665  -1.824  -2.812  1.00  0.00     0.034 C 
ENDBRANCH   2  11
ENDBRANCH   1   2
BRANCH   1  13
HETATM   13  C   LIG     1      -2.341  -2.324   1.296  1.00  0.00     0.028 C 
BRANCH  13  14
HETATM   14  C   LIG     1      -0.997  -2.029   0.623  1.00  0.00     0.006 C 
BRANCH  14  15
HETATM   15  C   LIG     1       0.146  -2.008   1.644  1.00  0.00     0.038 C 
BRANCH  15  16
HETATM   16  C   LIG     1       1.433  -1.524   1.021  1.00  0.00    -0.058 A 
HETATM   17  C   LIG     1       2.307  -2.428   0.399  1.00  0.00     0.009 A 
HETATM   18  C   LIG     1       3.487  -1.978  -0.196  1.00  0.00     0.036 A 
HETATM   19  C   LIG     1       3.791  -0.611  -0.174  1.00  0.00     0.102 A 
HETATM   20  C   LIG     1       2.928   0.305   0.438  1.00  0.00     0.036 A 
HETATM   21  C   LIG     1       1.751  -0.157   1.031  1.00  0.00     0.009 A 
BRANCH  19  22
HETATM   22  N   LIG     1       5.024  -0.134  -0.803  1.00  0.00    -0.116 N 
HETATM   23  O   LIG     1       5.678  -0.944  -1.475  1.00  0.00    -0.532 OA
HETATM   24  O   LIG     1       5.342   1.051  -0.628  1.00  0.00    -0.532 OA
ENDBRANCH  19  22
ENDBRANCH  15  16
ENDBRANCH  14  15
ENDBRANCH  13  14
ENDBRANCH   1  13
TORSDOF 13
