REMARK  9 active torsions:
REMARK  status: ('A' for Active; 'I' for Inactive)
REMARK    1  A    between atoms: C_2  and  O_3 
REMARK    2  A    between atoms: C_2  and  C_23 
REMARK    3  A    between atoms: O_3  and  C_4 
REMARK    4  A    between atoms: C_4  and  C_5 
REMARK    5  A    between atoms: C_4  and  C_12 
REMARK    6  A    between atoms: C_4  and  C_18 
REMARK    7  A    between atoms: C_5  and  C_6 
REMARK    8  A    between atoms: C_18  and  C_20 
REMARK    9  A    between atoms: C_20  and  N_21 
ROOT
HETATM    1  C   LIG     1       1.197  -2.129  -0.129  1.00  0.00     0.106 C 
ENDROOT
BRANCH   1   2
HETATM    2  O   LIG     1      -0.194  -1.872   0.304  1.00  0.00    -0.304 OA
BRANCH   2   3
HETATM    3  C   LIG     1      -0.537  -1.073   1.347  1.00  0.00     0.259 C 
HETATM    4  O   LIG     1       0.233  -0.411   2.028  1.00  0.00    -0.265 OA
BRANCH   3   5
HETATM    5  C   LIG     1      -2.029  -1.100   1.550  1.00  0.00     0.106 C 
HETATM    6  C   LIG     1      -2.743  -0.342   0.449  1.00  0.00     0.015 C 
ENDBRANCH   3   5
ENDBRANCH   2   3
ENDBRANCH   1   2
BRANCH   1   7
HETATM    7  C   LIG     1       1.065  -3.378  -1.087  1.00  0.00     0.082 C 
BRANCH   7   8
HETATM    8  C   LIG     1       0.324  -4.597  -0.569  1.00  0.00    -0.055 A 
HETATM    9  C   LIG     1       1.029  -5.709  -0.087  1.00  0.00     0.007 A 
HETATM   10  C   LIG     1       0.346  -6.832   0.386  1.00  0.00     0.001 A 
HETATM   11  C   LIG     1      -1.047  -6.858   0.377  1.00  0.00     0.000 A 
HETATM   12  C   LIG     1      -1.759  -5.762  -0.107  1.00  0.00     0.001 A 
HETATM   13  C   LIG     1      -1.078  -4.639  -0.580  1.00  0.00     0.007 A 
ENDBRANCH   7   8
ENDBRANCH   1   7
BRANCH   1  14
HETATM   14  C   LIG     1       2.110  -2.536   1.047  1.00  0.00    -0.022 A 
HETATM   15  C   LIG     1       1.578  -3.240   2.150  1.00  0.00     0.010 A 
HETATM   16  C   LIG     1       2.376  -3.655   3.220  1.00  0.00     0.001 A 
HETATM   17  C   LIG     1       3.738  -3.387   3.214  1.00  0.00     0.000 A 
HETATM   18  C   LIG     1       4.296  -2.715   2.133  1.00  0.00     0.001 A 
HETATM   19  C   LIG     1       3.494  -2.303   1.061  1.00  0.00     0.010 A 
ENDBRANCH   1  14
BRANCH   1  20
HETATM   20  C   LIG     1       1.618  -0.864  -1.021  1.00  0.00     0.047 C 
HETATM   21  C   LIG     1       2.742  -1.103  -2.052  1.00  0.00     0.015 C 
BRANCH  20  22
HETATM   22  C   LIG     1       1.847   0.427  -0.200  1.00  0.00     0.239 C 
BRANCH  22  23
HETATM   23  N   LIG     1       2.350   1.556  -1.056  1.00  0.00    -0.079 N 
HETATM   24  C   LIG     1       2.436   2.859  -0.338  1.00  0.00     0.267 C 
HETATM   25  H   LIG     1       1.737   1.670  -1.874  1.00  0.00     0.276 HD
HETATM   26  H   LIG     1       3.285   1.330  -1.420  1.00  0.00     0.276 HD
ENDBRANCH  22  23
ENDBRANCH  20  22
ENDBRANCH   1  20
TORSDOF 9
