REMARK  9 active torsions:
REMARK  status: ('A' for Active; 'I' for Inactive)
REMARK    1  A    between atoms: C_4  and  C_27 
REMARK    2  A    between atoms: N_5  and  C_6 
REMARK    3  A    between atoms: C_6  and  C_7 
REMARK    4  A    between atoms: C_10  and  C_13 
REMARK    5  A    between atoms: C_18  and  C_19 
REMARK    6  A    between atoms: C_24  and  C_25 
REMARK    7  A    between atoms: C_25  and  O_26 
REMARK    8  A    between atoms: C_27  and  C_28 
REMARK    9  A    between atoms: C_28  and  C_29 
ROOT
HETATM    1  C   LIG     1      -3.415  -3.753  -0.818  1.00  0.00    -0.040 A 
HETATM    2  C   LIG     1      -3.665  -4.625   0.250  1.00  0.00     0.010 A 
HETATM    3  C   LIG     1      -4.975  -4.871   0.677  1.00  0.00     0.013 A 
HETATM    4  C   LIG     1      -6.068  -4.262   0.043  1.00  0.00    -0.025 A 
HETATM    5  C   LIG     1      -5.814  -3.412  -1.044  1.00  0.00     0.013 A 
HETATM    6  C   LIG     1      -4.507  -3.166  -1.473  1.00  0.00     0.010 A 
ENDROOT
BRANCH   1   7
HETATM    7  C   LIG     1      -2.014  -3.467  -1.298  1.00  0.00     0.169 C 
BRANCH   7   8
HETATM    8  N   LIG     1      -1.130  -2.979  -0.241  1.00  0.00    -0.330 N 
HETATM    9  C   LIG     1      -0.057  -3.663   0.299  1.00  0.00     0.108 A 
HETATM   10  N   LIG     1       0.551  -2.926   1.207  1.00  0.00    -0.221 NA
HETATM   11  C   LIG     1      -0.143  -1.749   1.272  1.00  0.00     0.152 A 
HETATM   12 CL   LIG     1       0.308  -0.498   2.337  1.00  0.00    -0.060 Cl
HETATM   13  C   LIG     1      -1.196  -1.745   0.381  1.00  0.00     0.077 A 
BRANCH   9  14
HETATM   14  C   LIG     1       0.349  -5.044  -0.119  1.00  0.00     0.079 C 
BRANCH  14  15
HETATM   15  C   LIG     1       1.481  -5.611   0.742  1.00  0.00     0.007 C 
BRANCH  15  16
HETATM   16  C   LIG     1       1.867  -7.021   0.295  1.00  0.00    -0.004 C 
HETATM   17  C   LIG     1       2.989  -7.589   1.149  1.00  0.00     0.005 C 
ENDBRANCH  15  16
ENDBRANCH  14  15
ENDBRANCH   9  14
BRANCH  13  18
HETATM   18  C   LIG     1      -2.219  -0.713   0.100  1.00  0.00     0.224 C 
BRANCH  18  19
HETATM   19  O   LIG     1      -1.971  -0.220  -1.208  1.00  0.00    -0.395 OA
HETATM   20  H   LIG     1      -1.094   0.200  -1.190  1.00  0.00     0.209 HD
ENDBRANCH  18  19
ENDBRANCH  13  18
ENDBRANCH   7   8
ENDBRANCH   1   7
BRANCH   4  21
HETATM   21  C   LIG     1      -7.444  -4.471   0.528  1.00  0.00    -0.012 A 
HETATM   22  C   LIG     1      -8.111  -3.387   1.138  1.00  0.00     0.013 A 
HETATM   23  C   LIG     1      -9.404  -3.519   1.648  1.00  0.00     0.001 A 
HETATM   24  C   LIG     1     -10.061  -4.740   1.562  1.00  0.00     0.001 A 
HETATM   25  C   LIG     1      -9.426  -5.826   0.962  1.00  0.00     0.016 A 
HETATM   26  C   LIG     1      -8.122  -5.709   0.435  1.00  0.00     0.025 A 
BRANCH  26  27
HETATM   27  C   LIG     1      -7.532  -6.876  -0.199  1.00  0.00     0.194 A 
HETATM   28  N   LIG     1      -7.411  -7.004  -1.535  1.00  0.00    -0.140 NA
HETATM   29  N   LIG     1      -6.929  -8.264  -1.690  1.00  0.00     0.020 NA
HETATM   30  N   LIG     1      -6.802  -8.853  -0.475  1.00  0.00     0.020 NA
HETATM   31  N   LIG     1      -7.205  -7.987   0.491  1.00  0.00    -0.140 NA
ENDBRANCH  26  27
ENDBRANCH   4  21
TORSDOF 9
