REMARK  8 active torsions:
REMARK  status: ('A' for Active; 'I' for Inactive)
REMARK    1  A    between atoms: O_1  and  C_2 
REMARK    2  A    between atoms: O_1  and  C_7 
REMARK    3  A    between atoms: C_2  and  C_3 
REMARK    4  A    between atoms: C_3  and  N_4 
REMARK    5  A    between atoms: C_10  and  C_13 
REMARK    6  A    between atoms: C_13  and  C_14 
REMARK    7  A    between atoms: C_20  and  C_21 
REMARK    8  A    between atoms: C_20  and  C_23 
ROOT
HETATM    1  C   LIG     1      -6.050   0.007  -0.372  1.00  0.00    -0.009 C 
HETATM    2  C   LIG     1      -6.910  -1.016  -0.616  1.00  0.00    -0.036 C 
ENDROOT
BRANCH   1   3
HETATM    3  C   LIG     1      -4.591  -0.230  -0.484  1.00  0.00    -0.024 A 
HETATM    4  C   LIG     1      -3.886  -0.862   0.549  1.00  0.00     0.015 A 
HETATM    5  C   LIG     1      -2.506  -1.066   0.447  1.00  0.00     0.037 A 
HETATM    6  C   LIG     1      -1.816  -0.633  -0.686  1.00  0.00     0.068 A 
HETATM    7  C   LIG     1      -2.520  -0.002  -1.717  1.00  0.00     0.037 A 
HETATM    8  C   LIG     1      -3.897   0.203  -1.618  1.00  0.00     0.015 A 
BRANCH   6   9
HETATM    9  O   LIG     1      -0.473  -0.764  -0.911  1.00  0.00    -0.350 OA
BRANCH   9  10
HETATM   10  C   LIG     1       0.316  -1.318   0.142  1.00  0.00     0.203 C 
BRANCH  10  11
HETATM   11  C   LIG     1       1.774  -1.290  -0.320  1.00  0.00     0.260 C 
BRANCH  11  12
HETATM   12  N   LIG     1       2.742  -1.673   0.786  1.00  0.00    -0.077 N 
HETATM   13  C   LIG     1       4.161  -1.326   0.406  1.00  0.00     0.269 C 
HETATM   14  C   LIG     1       2.639  -3.117   1.203  1.00  0.00     0.269 C 
HETATM   15  H   LIG     1       2.522  -1.099   1.611  1.00  0.00     0.279 HD
ENDBRANCH  11  12
ENDBRANCH  10  11
ENDBRANCH   9  10
ENDBRANCH   6   9
ENDBRANCH   1   3
BRANCH   1  16
HETATM   16  C   LIG     1      -6.544   1.359   0.000  1.00  0.00    -0.025 A 
HETATM   17  C   LIG     1      -6.392   1.824   1.314  1.00  0.00     0.012 A 
HETATM   18  C   LIG     1      -6.835   3.100   1.666  1.00  0.00     0.001 A 
HETATM   19  C   LIG     1      -7.426   3.923   0.708  1.00  0.00     0.000 A 
HETATM   20  C   LIG     1      -7.571   3.474  -0.604  1.00  0.00     0.001 A 
HETATM   21  C   LIG     1      -7.129   2.198  -0.959  1.00  0.00     0.012 A 
ENDBRANCH   1  16
BRANCH   2  22
HETATM   22  C   LIG     1      -6.513  -2.414  -1.074  1.00  0.00     0.036 C 
HETATM   23  C   LIG     1      -6.620  -3.450   0.039  1.00  0.00     0.010 C 
ENDBRANCH   2  22
BRANCH   2  24
HETATM   24  C   LIG     1      -8.379  -0.839  -0.499  1.00  0.00    -0.029 A 
HETATM   25  C   LIG     1      -8.988  -0.751   0.761  1.00  0.00     0.012 A 
HETATM   26  C   LIG     1     -10.369  -0.582   0.868  1.00  0.00     0.001 A 
HETATM   27  C   LIG     1     -11.154  -0.503  -0.282  1.00  0.00     0.000 A 
HETATM   28  C   LIG     1     -10.559  -0.593  -1.540  1.00  0.00     0.001 A 
HETATM   29  C   LIG     1      -9.177  -0.761  -1.649  1.00  0.00     0.012 A 
ENDBRANCH   2  24
TORSDOF 8
