REMARK  4 active torsions:
REMARK  status: ('A' for Active; 'I' for Inactive)
REMARK    1  A    between atoms: S_1  and  N_4 
REMARK    2  A    between atoms: N_4  and  C_5 
REMARK    3  A    between atoms: N_13  and  C_16 
REMARK    4  A    between atoms: C_29  and  O_30 
ROOT
HETATM    1  C   LIG     1      11.380  -4.282  -0.368  1.00  0.00     0.192 C 
HETATM    2  C   LIG     1      12.055  -5.062   0.763  1.00  0.00     0.038 C 
HETATM    3  C   LIG     1      13.365  -5.675   0.260  1.00  0.00     0.041 C 
HETATM    4  C   LIG     1      14.228  -4.701  -0.506  1.00  0.00    -0.050 A 
HETATM    5  C   LIG     1      15.580  -5.023  -0.732  1.00  0.00     0.030 A 
HETATM    6  C   LIG     1      16.412  -4.164  -1.460  1.00  0.00     0.045 A 
HETATM    7  C   LIG     1      17.793  -4.497  -1.676  1.00  0.00     0.099 C 
HETATM    8  N   LIG     1      18.909  -4.764  -1.851  1.00  0.00    -0.191 NA
HETATM    9  C   LIG     1      15.888  -2.976  -1.974  1.00  0.00     0.023 A 
HETATM   10  C   LIG     1      14.545  -2.653  -1.765  1.00  0.00     0.009 A 
HETATM   11  C   LIG     1      13.701  -3.512  -1.044  1.00  0.00    -0.050 A 
HETATM   12  C   LIG     1      12.261  -3.103  -0.808  1.00  0.00     0.072 C 
ENDROOT
BRANCH   1  13
HETATM   13  N   LIG     1       9.961  -3.857   0.048  1.00  0.00    -0.066 N 
HETATM   14  C   LIG     1       9.104  -3.451  -1.137  1.00  0.00     0.238 C 
HETATM   15  C   LIG     1       7.653  -3.327  -0.694  1.00  0.00     0.066 C 
HETATM   16  C   LIG     1       7.453  -2.337   0.472  1.00  0.00     0.073 C 
HETATM   17  O   LIG     1       6.136  -2.544   1.021  1.00  0.00    -0.339 OA
HETATM   18  C   LIG     1       8.417  -2.725   1.613  1.00  0.00     0.066 C 
HETATM   19  C   LIG     1       7.662  -0.862   0.089  1.00  0.00     0.075 C 
HETATM   20  C   LIG     1       5.092  -1.851   0.479  1.00  0.00     0.078 A 
HETATM   21  C   LIG     1       3.825  -2.228   0.930  1.00  0.00     0.039 A 
HETATM   22  C   LIG     1       5.234  -0.804  -0.437  1.00  0.00     0.006 A 
HETATM   23  C   LIG     1       2.687  -1.573   0.462  1.00  0.00     0.027 A 
HETATM   24  C   LIG     1       2.817  -0.555  -0.479  1.00  0.00     0.023 A 
HETATM   25  C   LIG     1       4.081  -0.172  -0.933  1.00  0.00     0.037 A 
HETATM   26  C   LIG     1       6.600  -0.376  -0.891  1.00  0.00     0.157 C 
HETATM   27  C   LIG     1       9.866  -2.841   1.168  1.00  0.00     0.238 C 
HETATM   28  H   LIG     1       9.529  -4.719   0.411  1.00  0.00     0.280 HD
BRANCH  24  29
HETATM   29  N   LIG     1       1.662   0.183  -0.884  1.00  0.00    -0.186 NA
HETATM   30  H   LIG     1       1.632   0.436  -1.876  1.00  0.00     0.145 HD
BRANCH  29  31
HETATM   31  S   LIG     1       1.258   1.531   0.081  1.00  0.00     0.210 S 
HETATM   32  O   LIG     1       2.337   1.838   0.996  1.00  0.00    -0.211 OA
HETATM   33  O   LIG     1       0.728   2.530  -0.825  1.00  0.00    -0.211 OA
HETATM   34  C   LIG     1      -0.110   0.871   1.005  1.00  0.00     0.180 C 
ENDBRANCH  29  31
ENDBRANCH  24  29
BRANCH  26  35
HETATM   35  O   LIG     1       6.710   1.042  -0.979  1.00  0.00    -0.391 OA
HETATM   36  H   LIG     1       6.185   1.430  -0.255  1.00  0.00     0.210 HD
ENDBRANCH  26  35
ENDBRANCH   1  13
TORSDOF 4
