REMARK  8 active torsions:
REMARK  status: ('A' for Active; 'I' for Inactive)
REMARK    1  A    between atoms: C_2  and  O_3 
REMARK       I    between atoms: C_2  and  N_8 
REMARK    2  A    between atoms: O_3  and  C_4 
REMARK    3  A    between atoms: N_16  and  C_18 
REMARK    4  A    between atoms: C_18  and  C_19 
REMARK    5  A    between atoms: C_19  and  O_20 
REMARK    6  A    between atoms: C_19  and  C_21 
REMARK    7  A    between atoms: C_21  and  O_22 
REMARK    8  A    between atoms: O_22  and  C_23 
ROOT
HETATM    1  C   LIG     1      10.970  -0.054  -0.505  1.00  0.00     0.069 A 
HETATM    2  C   LIG     1      11.530  -1.036  -1.323  1.00  0.00     0.038 A 
HETATM    3  C   LIG     1      12.842  -0.895  -1.791  1.00  0.00     0.025 A 
HETATM    4  C   LIG     1      13.601   0.227  -1.443  1.00  0.00     0.044 A 
HETATM    5  C   LIG     1      14.943   0.369  -1.924  1.00  0.00     0.099 C 
HETATM    6  N   LIG     1      16.030   0.484  -2.315  1.00  0.00    -0.191 NA
HETATM    7  C   LIG     1      13.042   1.210  -0.623  1.00  0.00     0.025 A 
HETATM    8  C   LIG     1      11.732   1.066  -0.159  1.00  0.00     0.038 A 
ENDROOT
BRANCH   1   9
HETATM    9  O   LIG     1       9.706  -0.064   0.015  1.00  0.00    -0.349 OA
BRANCH   9  10
HETATM   10  C   LIG     1       8.878  -1.190  -0.292  1.00  0.00     0.209 C 
BRANCH  10  11
HETATM   11  C   LIG     1       7.535  -0.940   0.392  1.00  0.00     0.168 C 
BRANCH  11  12
HETATM   12  C   LIG     1       6.548  -2.092   0.177  1.00  0.00     0.268 C 
BRANCH  12  13
HETATM   13  N   LIG     1       5.155  -1.534   0.426  1.00  0.00    -0.064 N 
HETATM   14  C   LIG     1       4.724  -1.533   1.870  1.00  0.00     0.268 C 
HETATM   15  C   LIG     1       4.156  -2.903   2.301  1.00  0.00     0.165 C 
HETATM   16  O   LIG     1       4.315  -3.939   1.319  1.00  0.00    -0.376 OA
HETATM   17  C   LIG     1       2.712  -2.825   2.827  1.00  0.00     0.161 C 
HETATM   18  C   LIG     1       3.850  -3.619  -0.001  1.00  0.00     0.149 C 
HETATM   19  C   LIG     1       2.396  -4.057  -0.229  1.00  0.00     0.053 C 
HETATM   20  C   LIG     1       4.080  -2.152  -0.415  1.00  0.00     0.267 C 
HETATM   21  C   LIG     1       1.480  -3.943   0.986  1.00  0.00     0.131 C 
HETATM   22  N   LIG     1       1.715  -2.730   1.764  1.00  0.00    -0.325 N 
HETATM   23  C   LIG     1       1.060  -1.529   1.523  1.00  0.00     0.363 C 
HETATM   24  O   LIG     1       1.279  -0.505   2.159  1.00  0.00    -0.238 OA
HETATM   25  H   LIG     1       5.274  -0.541   0.129  1.00  0.00     0.280 HD
BRANCH  23  26
HETATM   26  O   LIG     1       0.200  -1.621   0.476  1.00  0.00    -0.294 OA
BRANCH  26  27
HETATM   27  C   LIG     1      -0.584  -0.483   0.031  1.00  0.00     0.061 C 
HETATM   28  C   LIG     1      -1.532   0.005   1.131  1.00  0.00     0.046 C 
HETATM   29  C   LIG     1      -1.422  -1.021  -1.139  1.00  0.00     0.046 C 
HETATM   30  C   LIG     1       0.321   0.640  -0.488  1.00  0.00     0.046 C 
ENDBRANCH  26  27
ENDBRANCH  23  26
ENDBRANCH  12  13
ENDBRANCH  11  12
BRANCH  11  31
HETATM   31  O   LIG     1       6.912   0.244  -0.153  1.00  0.00    -0.392 OA
HETATM   32  H   LIG     1       7.619   0.922  -0.188  1.00  0.00     0.210 HD
ENDBRANCH  11  31
ENDBRANCH  10  11
ENDBRANCH   9  10
ENDBRANCH   1   9
TORSDOF 8
