REMARK  6 active torsions:
REMARK  status: ('A' for Active; 'I' for Inactive)
REMARK    1  A    between atoms: S_2  and  N_9 
REMARK    2  A    between atoms: S_2  and  C_11 
REMARK    3  A    between atoms: N_8  and  C_10 
REMARK    4  A    between atoms: N_8  and  C_14 
REMARK    5  A    between atoms: C_12  and  C_18 
REMARK    6  A    between atoms: C_14  and  C_17 
ROOT
HETATM    1 CL   LIG     1      -2.598   2.955   0.028  1.00  0.00    -0.083 Cl
HETATM    2  C   LIG     1       0.149   0.062   0.071  1.00  0.00     0.047 A 
HETATM    3  C   LIG     1      -2.636   0.222   0.032  1.00  0.00     0.102 A 
HETATM    4  C   LIG     1      -0.617  -1.104   0.063  1.00  0.00     0.068 A 
HETATM    5  C   LIG     1      -2.009  -1.024   0.043  1.00  0.00     0.047 A 
HETATM    6  C   LIG     1      -0.478   1.308   0.060  1.00  0.00     0.055 A 
HETATM    7  C   LIG     1      -1.870   1.388   0.040  1.00  0.00     0.059 A 
ENDROOT
BRANCH   2   8
HETATM    8  N   LIG     1       1.560   0.003   0.091  1.00  0.00    -0.383 N 
HETATM    9  H   LIG     1       1.996  -0.911   0.118  1.00  0.00     0.160 HD
BRANCH   8  10
HETATM   10  C   LIG     1       2.384   1.170   0.100  1.00  0.00     0.184 C 
BRANCH  10  11
HETATM   11  C   LIG     1       3.849   0.822   0.086  1.00  0.00     0.070 A 
HETATM   12  O   LIG     1       4.246   0.089  -0.967  1.00  0.00    -0.325 OA
HETATM   13  C   LIG     1       5.578  -0.108  -0.783  1.00  0.00     0.142 A 
HETATM   14  C   LIG     1       6.001   0.501   0.375  1.00  0.00     0.027 A 
HETATM   15  C   LIG     1       4.856   1.111   0.940  1.00  0.00     0.036 A 
ENDBRANCH  10  11
ENDBRANCH   8  10
ENDBRANCH   2   8
BRANCH   4  16
HETATM   16  C   LIG     1       0.008  -2.420   0.074  1.00  0.00     0.211 C 
HETATM   17  O   LIG     1      -0.762  -3.354   0.694  1.00  0.00    -0.644 OA
HETATM   18  O   LIG     1       1.108  -2.692  -0.414  1.00  0.00    -0.644 OA
ENDBRANCH   4  16
BRANCH   3  19
HETATM   19  S   LIG     1      -4.388   0.261   0.007  1.00  0.00     0.258 S 
HETATM   20  O   LIG     1      -4.876  -0.988   0.570  1.00  0.00    -0.201 OA
HETATM   21  O   LIG     1      -4.824   1.531   0.564  1.00  0.00    -0.201 OA
BRANCH  19  22
HETATM   22  N   LIG     1      -4.683   0.265  -1.675  1.00  0.00    -0.324 N 
HETATM   23  H   LIG     1      -5.074  -0.588  -2.093  1.00  0.00     0.169 HD
HETATM   24  H   LIG     1      -5.036   1.133  -2.095  1.00  0.00     0.169 HD
ENDBRANCH  19  22
ENDBRANCH   3  19
TORSDOF 6
