REMARK  4 active torsions:
REMARK  status: ('A' for Active; 'I' for Inactive)
REMARK       I    between atoms: C_2  and  N_3 
REMARK    1  A    between atoms: C_2  and  C_12 
REMARK    2  A    between atoms: N_3  and  C_4 
REMARK    3  A    between atoms: N_13  and  C_18 
REMARK    4  A    between atoms: C_18  and  C_19 
ROOT
HETATM    1  O   LIG     1       0.202   0.871   1.580  1.00  0.00    -0.271 OA
HETATM    2  C   LIG     1       0.048   1.589   0.594  1.00  0.00     0.253 C 
HETATM    3  N   LIG     1      -1.140   1.880  -0.052  1.00  0.00    -0.324 N 
HETATM    4  H   LIG     1      -1.134   2.653  -0.709  1.00  0.00     0.169 HD
ENDROOT
BRANCH   2   5
HETATM    5  C   LIG     1       1.263   2.341   0.016  1.00  0.00     0.279 C 
HETATM    6  N   LIG     1       2.579   1.611   0.347  1.00  0.00    -0.058 N 
HETATM    7  C   LIG     1       3.816   2.419   0.038  1.00  0.00     0.236 C 
HETATM    8  H   LIG     1       2.539   1.430   1.363  1.00  0.00     0.281 HD
HETATM    9  C   LIG     1       3.759   3.773   0.720  1.00  0.00     0.028 C 
HETATM   10  C   LIG     1       2.516   4.540   0.307  1.00  0.00     0.004 C 
HETATM   11  C   LIG     1       1.267   3.742   0.642  1.00  0.00     0.043 C 
BRANCH   6  12
HETATM   12  C   LIG     1       2.652   0.236  -0.312  1.00  0.00     0.240 C 
BRANCH  12  13
HETATM   13  C   LIG     1       3.739  -0.651   0.212  1.00  0.00     0.011 A 
HETATM   14  C   LIG     1       5.068  -0.766  -0.492  1.00  0.00     0.007 A 
HETATM   15  C   LIG     1       4.097  -1.910  -0.538  1.00  0.00     0.007 A 
ENDBRANCH  12  13
ENDBRANCH   6  12
ENDBRANCH   2   5
BRANCH   3  16
HETATM   16  C   LIG     1      -2.413   1.276   0.135  1.00  0.00     0.046 A 
HETATM   17  C   LIG     1      -2.616  -0.068   0.523  1.00  0.00    -0.035 A 
HETATM   18  C   LIG     1      -1.532  -1.101   0.666  1.00  0.00     0.050 C 
HETATM   19  C   LIG     1      -3.931  -0.526   0.743  1.00  0.00     0.009 A 
HETATM   20  C   LIG     1      -5.031   0.294   0.522  1.00  0.00     0.001 A 
HETATM   21  C   LIG     1      -4.839   1.592   0.071  1.00  0.00     0.009 A 
HETATM   22  C   LIG     1      -3.544   2.096  -0.129  1.00  0.00    -0.035 A 
HETATM   23  C   LIG     1      -3.418   3.528  -0.586  1.00  0.00     0.050 C 
ENDBRANCH   3  16
TORSDOF 4
