REMARK  11 active torsions:
REMARK  status: ('A' for Active; 'I' for Inactive)
REMARK    1  A    between atoms: C_2  and  O_3 
REMARK    2  A    between atoms: C_2  and  C_13 
REMARK    3  A    between atoms: O_3  and  C_4 
REMARK    4  A    between atoms: C_4  and  C_5 
REMARK    5  A    between atoms: C_6  and  C_7 
REMARK    6  A    between atoms: C_7  and  N_8 
REMARK    7  A    between atoms: N_8  and  C_9 
REMARK    8  A    between atoms: N_8  and  C_11 
REMARK    9  A    between atoms: C_13  and  O_14 
REMARK   10  A    between atoms: C_13  and  C_15 
REMARK   11  A    between atoms: C_13  and  C_21 
ROOT
HETATM    1  C   LIG     1       0.030   2.034  -0.245  1.00  0.00     0.176 C 
ENDROOT
BRANCH   1   2
HETATM    2  C   LIG     1       0.812   0.964   0.572  1.00  0.00     0.299 C 
HETATM    3  O   LIG     1       0.422   0.405   1.588  1.00  0.00    -0.261 OA
BRANCH   2   4
HETATM    4  O   LIG     1       2.047   0.771   0.009  1.00  0.00    -0.307 OA
BRANCH   4   5
HETATM    5  C   LIG     1       2.847  -0.206   0.683  1.00  0.00     0.272 C 
BRANCH   5   6
HETATM    6  C   LIG     1       4.121  -0.335  -0.036  1.00  0.00    -0.078 C 
HETATM    7  C   LIG     1       5.153  -0.424  -0.644  1.00  0.00    -0.077 C 
BRANCH   7   8
HETATM    8  C   LIG     1       6.405  -0.509  -1.398  1.00  0.00     0.328 C 
BRANCH   8   9
HETATM    9  N   LIG     1       7.554  -0.762  -0.439  1.00  0.00    -0.062 N 
HETATM   10  H   LIG     1       7.351  -0.202   0.400  1.00  0.00     0.280 HD
BRANCH   9  11
HETATM   11  C   LIG     1       8.877  -0.280  -1.004  1.00  0.00     0.231 C 
HETATM   12  C   LIG     1       9.034   1.213  -0.778  1.00  0.00     0.034 C 
ENDBRANCH   9  11
BRANCH   9  13
HETATM   13  C   LIG     1       7.608  -2.216   0.001  1.00  0.00     0.231 C 
HETATM   14  C   LIG     1       8.266  -2.328   1.365  1.00  0.00     0.034 C 
ENDBRANCH   9  13
ENDBRANCH   8   9
ENDBRANCH   7   8
ENDBRANCH   5   6
ENDBRANCH   4   5
ENDBRANCH   2   4
ENDBRANCH   1   2
BRANCH   1  15
HETATM   15  O   LIG     1       0.776   2.364  -1.432  1.00  0.00    -0.374 OA
HETATM   16  H   LIG     1       1.710   2.144  -1.246  1.00  0.00     0.211 HD
ENDBRANCH   1  15
BRANCH   1  17
HETATM   17  C   LIG     1      -1.323   1.441  -0.661  1.00  0.00    -0.014 A 
HETATM   18  C   LIG     1      -2.325   1.179   0.291  1.00  0.00     0.011 A 
HETATM   19  C   LIG     1      -3.553   0.626  -0.085  1.00  0.00     0.001 A 
HETATM   20  C   LIG     1      -3.800   0.317  -1.419  1.00  0.00     0.000 A 
HETATM   21  C   LIG     1      -2.820   0.559  -2.377  1.00  0.00     0.001 A 
HETATM   22  C   LIG     1      -1.593   1.113  -2.002  1.00  0.00     0.011 A 
ENDBRANCH   1  17
BRANCH   1  23
HETATM   23  C   LIG     1      -0.099   3.343   0.605  1.00  0.00     0.035 C 
HETATM   24  C   LIG     1      -0.891   4.444  -0.139  1.00  0.00     0.008 C 
HETATM   25  C   LIG     1      -1.016   5.722   0.690  1.00  0.00     0.001 C 
HETATM   26  C   LIG     1       0.347   6.254   1.114  1.00  0.00     0.000 C 
HETATM   27  C   LIG     1       1.154   5.188   1.845  1.00  0.00     0.001 C 
HETATM   28  C   LIG     1       1.282   3.910   1.018  1.00  0.00     0.008 C 
ENDBRANCH   1  23
TORSDOF 11
