REMARK  8 active torsions:
REMARK  status: ('A' for Active; 'I' for Inactive)
REMARK    1  A    between atoms: C_5  and  C_8 
REMARK    2  A    between atoms: C_10  and  C_13 
REMARK    3  A    between atoms: N_14  and  N_15 
REMARK    4  A    between atoms: N_19  and  C_20 
REMARK    5  A    between atoms: C_20  and  C_21 
REMARK    6  A    between atoms: C_21  and  C_22 
REMARK    7  A    between atoms: C_22  and  C_23 
REMARK    8  A    between atoms: C_23  and  N_24 
ROOT
HETATM    1  N   LIG     1      11.906   1.330   0.332  1.00  0.00    -0.211 N 
HETATM    2  C   LIG     1      11.971   0.007   0.898  1.00  0.00     0.259 A 
HETATM    3  C   LIG     1      13.438  -0.069   1.266  1.00  0.00     0.247 A 
HETATM    4  O   LIG     1      13.981  -1.044   1.768  1.00  0.00    -0.271 OA
HETATM    5  N   LIG     1      14.045   1.114   0.943  1.00  0.00    -0.267 N 
HETATM    6  C   LIG     1      13.153   1.978   0.350  1.00  0.00     0.348 A 
HETATM    7  O   LIG     1      13.428   3.091  -0.078  1.00  0.00    -0.245 OA
ENDROOT
BRANCH   1   8
HETATM    8  N   LIG     1      10.811   1.960  -0.182  1.00  0.00    -0.178 NA
HETATM    9  C   LIG     1       9.670   1.354  -0.153  1.00  0.00     0.176 C 
BRANCH   9  10
HETATM   10  C   LIG     1       8.498   1.985  -0.680  1.00  0.00     0.095 A 
HETATM   11  O   LIG     1       7.326   1.295  -0.603  1.00  0.00    -0.308 OA
HETATM   12  C   LIG     1       6.345   2.073  -1.153  1.00  0.00     0.086 A 
HETATM   13  C   LIG     1       6.898   3.263  -1.585  1.00  0.00     0.041 A 
HETATM   14  C   LIG     1       8.280   3.207  -1.280  1.00  0.00     0.041 A 
BRANCH  12  15
HETATM   15  C   LIG     1       5.002   1.499  -1.158  1.00  0.00    -0.002 A 
HETATM   16  C   LIG     1       4.759   0.223  -0.621  1.00  0.00     0.016 A 
HETATM   17  C   LIG     1       3.473  -0.325  -0.624  1.00  0.00     0.024 A 
HETATM   18  C   LIG     1       2.416   0.399  -1.166  1.00  0.00     0.034 A 
HETATM   19 CL   LIG     1       0.833  -0.273  -1.171  1.00  0.00    -0.084 Cl
HETATM   20  C   LIG     1       2.633   1.665  -1.705  1.00  0.00     0.024 A 
HETATM   21  C   LIG     1       3.921   2.211  -1.700  1.00  0.00     0.016 A 
ENDBRANCH  12  15
ENDBRANCH   9  10
ENDBRANCH   1   8
BRANCH   5  22
HETATM   22  C   LIG     1      15.443   1.418   1.194  1.00  0.00     0.137 C 
BRANCH  22  23
HETATM   23  C   LIG     1      16.346   0.935   0.054  1.00  0.00     0.022 C 
BRANCH  23  24
HETATM   24  C   LIG     1      17.826   1.198   0.359  1.00  0.00     0.029 C 
BRANCH  24  25
HETATM   25  C   LIG     1      18.723   0.685  -0.767  1.00  0.00     0.235 C 
BRANCH  25  26
HETATM   26  N   LIG     1      20.197   0.785  -0.379  1.00  0.00    -0.068 N 
HETATM   27  C   LIG     1      20.719   2.220  -0.386  1.00  0.00     0.262 C 
HETATM   28  C   LIG     1      22.207   2.274   0.009  1.00  0.00     0.262 C 
HETATM   29  N   LIG     1      23.043   1.368  -0.882  1.00  0.00    -0.072 N 
HETATM   30  C   LIG     1      24.510   1.435  -0.522  1.00  0.00     0.269 C 
HETATM   31  C   LIG     1      22.529  -0.063  -0.871  1.00  0.00     0.262 C 
HETATM   32  H   LIG     1      22.982   1.725  -1.848  1.00  0.00     0.279 HD
HETATM   33  C   LIG     1      21.047  -0.117  -1.274  1.00  0.00     0.262 C 
HETATM   34  H   LIG     1      20.261   0.418   0.583  1.00  0.00     0.280 HD
ENDBRANCH  25  26
ENDBRANCH  24  25
ENDBRANCH  23  24
ENDBRANCH  22  23
ENDBRANCH   5  22
TORSDOF 8
