REMARK  10 active torsions:
REMARK  status: ('A' for Active; 'I' for Inactive)
REMARK    1  A    between atoms: O_4  and  C_19 
REMARK    2  A    between atoms: O_4  and  C_23 
REMARK       I    between atoms: N_6  and  C_12 
REMARK    3  A    between atoms: N_7  and  C_13 
REMARK    4  A    between atoms: N_7  and  C_15 
REMARK    5  A    between atoms: C_8  and  C_14 
REMARK    6  A    between atoms: C_12  and  C_13 
REMARK    7  A    between atoms: C_15  and  C_16 
REMARK    8  A    between atoms: C_15  and  C_19 
REMARK    9  A    between atoms: C_16  and  C_18 
REMARK   10  A    between atoms: C_18  and  C_20 
ROOT
HETATM    1  N   UNK     1       0.062  -0.374  -1.955  1.00  0.00    -0.049 N 
HETATM    2  H   UNK     1       0.498   0.068  -2.764  1.00  0.00     0.279 HD
HETATM    3  H   UNK     1       0.166  -1.376  -2.034  1.00  0.00     0.279 HD
ENDROOT
BRANCH   1   4
HETATM    4  C   UNK     1      -1.358  -0.069  -1.919  1.00  0.00     0.274 C 
HETATM    5  C   UNK     1      -2.046  -0.523  -3.191  1.00  0.00     0.050 C 
BRANCH   4   6
HETATM    6  C   UNK     1      -1.933  -0.801  -0.733  1.00  0.00     0.251 C 
HETATM    7  O   UNK     1      -1.452  -1.877  -0.373  1.00  0.00    -0.271 OA
HETATM    8  N   UNK     1      -3.012  -0.186  -0.117  1.00  0.00    -0.336 N 
HETATM    9  C   UNK     1      -3.581  -0.673   1.133  1.00  0.00     0.188 C 
HETATM   10  C   UNK     1      -3.612   1.086  -0.509  1.00  0.00     0.127 C 
HETATM   11  C   UNK     1      -4.386   0.502   1.676  1.00  0.00     0.038 C 
HETATM   12  C   UNK     1      -4.808   1.255   0.416  1.00  0.00     0.022 C 
BRANCH   9  13
HETATM   13  C   UNK     1      -4.459  -1.840   0.794  1.00  0.00     0.196 C 
HETATM   14  O   UNK     1      -4.503  -2.721   1.822  1.00  0.00    -0.646 OA
HETATM   15  O   UNK     1      -5.058  -1.984  -0.262  1.00  0.00    -0.646 OA
ENDBRANCH   9  13
ENDBRANCH   4   6
ENDBRANCH   1   4
BRANCH   1  16
HETATM   16  C   UNK     1       0.722   0.053  -0.727  1.00  0.00     0.286 C 
BRANCH  16  17
HETATM   17  C   UNK     1       2.221  -0.286  -0.740  1.00  0.00     0.048 C 
BRANCH  17  18
HETATM   18  C   UNK     1       2.993   0.104   0.528  1.00  0.00     0.041 C 
BRANCH  18  19
HETATM   19  C   UNK     1       4.446  -0.298   0.504  1.00  0.00    -0.058 A 
HETATM   20  C   UNK     1       4.816  -1.542   0.992  1.00  0.00     0.007 A 
HETATM   21  C   UNK     1       6.160  -1.915   0.969  1.00  0.00     0.001 A 
HETATM   22  C   UNK     1       7.118  -1.039   0.458  1.00  0.00     0.000 A 
HETATM   23  C   UNK     1       6.732   0.209  -0.030  1.00  0.00     0.001 A 
HETATM   24  C   UNK     1       5.388   0.582  -0.007  1.00  0.00     0.007 A 
ENDBRANCH  18  19
ENDBRANCH  17  18
ENDBRANCH  16  17
BRANCH  16  25
HETATM   25  C   UNK     1       0.539   1.556  -0.607  1.00  0.00     0.289 C 
HETATM   26  O   UNK     1       0.980   2.389  -1.389  1.00  0.00    -0.263 OA
BRANCH  25  27
HETATM   27  O   UNK     1      -0.205   1.830   0.508  1.00  0.00    -0.320 OA
BRANCH  27  28
HETATM   28  C   UNK     1      -0.468   3.216   0.749  1.00  0.00     0.174 C 
HETATM   29  C   UNK     1      -1.296   3.348   2.010  1.00  0.00     0.034 C 
ENDBRANCH  27  28
ENDBRANCH  25  27
ENDBRANCH  16  25
ENDBRANCH   1  16
TORSDOF 10
