REMARK  8 active torsions:
REMARK  status: ('A' for Active; 'I' for Inactive)
REMARK    1  A    between atoms: C_5  and  C_8 
REMARK    2  A    between atoms: C_8  and  N_9 
REMARK    3  A    between atoms: C_17  and  N_18 
REMARK    4  A    between atoms: N_18  and  C_19 
REMARK    5  A    between atoms: N_22  and  C_25 
REMARK    6  A    between atoms: C_25  and  C_26 
REMARK    7  A    between atoms: C_26  and  C_27 
REMARK    8  A    between atoms: C_30  and  O_31 
ROOT
HETATM    1  N   LIG     1       8.849  -1.354   0.442  1.00  0.00    -0.219 N 
HETATM    2  H   LIG     1       8.665  -0.523   0.993  1.00  0.00     0.178 HD
ENDROOT
BRANCH   1   3
HETATM    3  C   LIG     1       7.901  -2.278   0.160  1.00  0.00     0.704 A 
HETATM    4  N   LIG     1       6.589  -2.150   0.574  1.00  0.00    -0.175 N 
HETATM    5  C   LIG     1       5.887  -3.246   0.113  1.00  0.00     0.081 A 
HETATM    6  C   LIG     1       4.548  -3.644   0.218  1.00  0.00     0.032 A 
HETATM    7  C   LIG     1       6.839  -4.000  -0.566  1.00  0.00     0.103 A 
HETATM    8  C   LIG     1       4.190  -4.851  -0.393  1.00  0.00     0.002 A 
HETATM    9  C   LIG     1       5.129  -5.625  -1.077  1.00  0.00     0.002 A 
HETATM   10  C   LIG     1       6.463  -5.209  -1.172  1.00  0.00     0.034 A 
HETATM   11  N   LIG     1       8.067  -3.391  -0.524  1.00  0.00    -0.063 NA
BRANCH   4  12
HETATM   12  C   LIG     1       6.014  -1.076   1.371  1.00  0.00     0.186 C 
BRANCH  12  13
HETATM   13  C   LIG     1       5.242  -0.081   0.537  1.00  0.00    -0.039 A 
HETATM   14  C   LIG     1       5.844   0.601  -0.535  1.00  0.00     0.012 A 
HETATM   15  C   LIG     1       5.119   1.536  -1.276  1.00  0.00     0.043 A 
HETATM   16  C   LIG     1       3.796   1.799  -0.944  1.00  0.00     0.116 A 
HETATM   17  F   LIG     1       3.104   2.700  -1.655  1.00  0.00    -0.206 F 
HETATM   18  C   LIG     1       3.182   1.146   0.116  1.00  0.00     0.043 A 
HETATM   19  C   LIG     1       3.905   0.209   0.858  1.00  0.00     0.012 A 
ENDBRANCH  12  13
ENDBRANCH   4  12
ENDBRANCH   1   3
BRANCH   1  20
HETATM   20  C   LIG     1      10.209  -1.541  -0.045  1.00  0.00     0.102 C 
HETATM   21  C   LIG     1      11.008  -2.388   0.946  1.00  0.00     0.053 C 
HETATM   22  C   LIG     1      12.449  -2.545   0.492  1.00  0.00     0.237 C 
HETATM   23  N   LIG     1      13.086  -1.179   0.316  1.00  0.00    -0.071 N 
HETATM   24  C   LIG     1      12.323  -0.337  -0.685  1.00  0.00     0.237 C 
HETATM   25  H   LIG     1      13.034  -0.709   1.231  1.00  0.00     0.279 HD
HETATM   26  C   LIG     1      10.879  -0.179  -0.232  1.00  0.00     0.053 C 
BRANCH  23  27
HETATM   27  C   LIG     1      14.563  -1.324  -0.031  1.00  0.00     0.239 C 
BRANCH  27  28
HETATM   28  C   LIG     1      15.324  -0.016   0.197  1.00  0.00     0.066 C 
BRANCH  28  29
HETATM   29  C   LIG     1      16.806  -0.226   0.018  1.00  0.00    -0.056 A 
HETATM   30  C   LIG     1      17.610  -0.575   1.109  1.00  0.00     0.010 A 
HETATM   31  C   LIG     1      18.974  -0.808   0.930  1.00  0.00     0.037 A 
HETATM   32  C   LIG     1      19.557  -0.699  -0.335  1.00  0.00     0.068 A 
HETATM   33  C   LIG     1      18.761  -0.351  -1.425  1.00  0.00     0.037 A 
HETATM   34  C   LIG     1      17.392  -0.118  -1.250  1.00  0.00     0.010 A 
BRANCH  32  35
HETATM   35  O   LIG     1      20.899  -0.960  -0.368  1.00  0.00    -0.356 OA
HETATM   36  C   LIG     1      21.550  -0.844  -1.627  1.00  0.00     0.210 C 
ENDBRANCH  32  35
ENDBRANCH  28  29
ENDBRANCH  27  28
ENDBRANCH  23  27
ENDBRANCH   1  20
TORSDOF 8
