REMARK  7 active torsions:
REMARK  status: ('A' for Active; 'I' for Inactive)
REMARK    1  A    between atoms: N_2  and  C_4 
REMARK    2  A    between atoms: C_8  and  C_10 
REMARK    3  A    between atoms: C_11  and  C_23 
REMARK    4  A    between atoms: C_16  and  C_17 
REMARK    5  A    between atoms: C_17  and  O_19 
REMARK    6  A    between atoms: O_19  and  C_20 
REMARK    7  A    between atoms: C_23  and  O_25 
ROOT
HETATM    1  C   LIG     1       4.783   3.893   0.634  1.00  0.00     0.101 A 
HETATM    2  C   LIG     1       4.328   5.295   0.231  1.00  0.00     0.052 A 
HETATM    3  C   LIG     1       5.214   6.272  -0.049  1.00  0.00     0.018 A 
HETATM    4  N   LIG     1       6.573   6.005   0.023  1.00  0.00    -0.362 N 
HETATM    5  C   LIG     1       7.119   4.790   0.405  1.00  0.00     0.018 A 
HETATM    6  C   LIG     1       8.622   4.758   0.510  1.00  0.00     0.069 C 
HETATM    7  C   LIG     1       6.303   3.758   0.702  1.00  0.00     0.052 A 
HETATM    8  C   LIG     1       4.851   7.695  -0.388  1.00  0.00     0.069 C 
HETATM    9  H   LIG     1       7.215   6.758  -0.209  1.00  0.00     0.165 HD
ENDROOT
BRANCH   1  10
HETATM   10  C   LIG     1       4.172   2.825  -0.281  1.00  0.00    -0.042 A 
HETATM   11  C   LIG     1       4.476   2.779  -1.653  1.00  0.00     0.008 A 
HETATM   12  C   LIG     1       3.916   1.800  -2.479  1.00  0.00     0.003 A 
HETATM   13  C   LIG     1       3.042   0.850  -1.950  1.00  0.00     0.036 A 
HETATM   14  C   LIG     1       2.733   0.887  -0.587  1.00  0.00     0.103 A 
HETATM   15  C   LIG     1       3.291   1.866   0.249  1.00  0.00     0.044 A 
BRANCH  14  16
HETATM   16  N   LIG     1       1.813  -0.109  -0.025  1.00  0.00    -0.116 N 
HETATM   17  O   LIG     1       1.361  -0.975  -0.787  1.00  0.00    -0.532 OA
HETATM   18  O   LIG     1       1.544  -0.025   1.182  1.00  0.00    -0.532 OA
ENDBRANCH  14  16
ENDBRANCH   1  10
BRANCH   2  19
HETATM   19  C   LIG     1       2.872   5.501   0.219  1.00  0.00     0.291 C 
HETATM   20  O   LIG     1       2.142   5.171   1.141  1.00  0.00    -0.260 OA
BRANCH  19  21
HETATM   21  O   LIG     1       2.479   6.017  -0.973  1.00  0.00    -0.323 OA
HETATM   22  C   LIG     1       1.067   6.194  -1.101  1.00  0.00     0.213 C 
ENDBRANCH  19  21
ENDBRANCH   2  19
BRANCH   7  23
HETATM   23  C   LIG     1       6.795   2.447   1.150  1.00  0.00     0.292 C 
HETATM   24  O   LIG     1       6.374   1.877   2.146  1.00  0.00    -0.259 OA
BRANCH  23  25
HETATM   25  O   LIG     1       7.693   1.955   0.259  1.00  0.00    -0.318 OA
BRANCH  25  26
HETATM   26  C   LIG     1       8.184   0.646   0.570  1.00  0.00     0.174 C 
HETATM   27  C   LIG     1       9.179   0.249  -0.503  1.00  0.00     0.034 C 
ENDBRANCH  25  26
ENDBRANCH  23  25
ENDBRANCH   7  23
TORSDOF 7
