REMARK  2 active torsions:
REMARK  status: ('A' for Active; 'I' for Inactive)
REMARK    1  A    between atoms: O_1  and  C_9 
REMARK    2  A    between atoms: N_3  and  C_4 
REMARK       I    between atoms: N_3  and  C_10 
ROOT
HETATM    1  C   LIG     1      -0.207  -0.423   0.000  1.00  0.00     0.034 A 
HETATM    2  C   LIG     1       0.220   0.905   0.000  1.00  0.00     0.032 A 
HETATM    3  C   LIG     1       0.730  -1.457  -0.001  1.00  0.00     0.032 A 
HETATM    4  C   LIG     1       1.584   1.199   0.000  1.00  0.00     0.039 A 
HETATM    5  C   LIG     1       2.093  -1.163  -0.001  1.00  0.00     0.039 A 
HETATM    6  C   LIG     1       2.520   0.165   0.000  1.00  0.00     0.065 A 
ENDROOT
BRANCH   1   7
HETATM    7  N   LIG     1      -1.570  -0.717   0.000  1.00  0.00    -0.328 N 
HETATM    8  C   LIG     1      -2.648   0.178   0.001  1.00  0.00     0.218 C 
HETATM    9  O   LIG     1      -2.600   1.404  -0.002  1.00  0.00    -0.274 OA
HETATM   10  C   LIG     1      -3.974  -0.542   0.001  1.00  0.00     0.117 C 
HETATM   11  H   LIG     1      -1.801  -1.709   0.000  1.00  0.00     0.169 HD
ENDBRANCH   1   7
BRANCH   6  12
HETATM   12  O   LIG     1       3.851   0.452   0.001  1.00  0.00    -0.361 OA
HETATM   13  H   LIG     1       3.965   1.418   0.002  1.00  0.00     0.217 HD
ENDBRANCH   6  12
TORSDOF 2
