REMARK  7 active torsions:
REMARK  status: ('A' for Active; 'I' for Inactive)
REMARK    1  A    between atoms: S_1  and  N_4 
REMARK    2  A    between atoms: N_4  and  C_5 
REMARK    3  A    between atoms: C_8  and  C_11 
REMARK    4  A    between atoms: C_11  and  C_13 
REMARK    5  A    between atoms: N_16  and  C_19 
REMARK    6  A    between atoms: C_19  and  C_20 
REMARK    7  A    between atoms: C_20  and  C_21 
ROOT
HETATM    1  C   LIG     1       7.421  -0.345  -0.885  1.00  0.00     0.064 C 
HETATM    2  C   LIG     1       8.034   1.054  -0.984  1.00  0.00     0.040 C 
HETATM    3  C   LIG     1       9.337   1.165  -0.204  1.00  0.00     0.235 C 
HETATM    4  N   LIG     1      10.314   0.104  -0.672  1.00  0.00    -0.071 N 
HETATM    5  C   LIG     1       9.736  -1.285  -0.501  1.00  0.00     0.235 C 
HETATM    6  C   LIG     1       8.449  -1.403  -1.302  1.00  0.00     0.040 C 
HETATM    7  H   LIG     1      10.469   0.263  -1.678  1.00  0.00     0.279 HD
ENDROOT
BRANCH   1   8
HETATM    8  C   LIG     1       6.193  -0.433  -1.786  1.00  0.00     0.163 C 
HETATM    9  O   LIG     1       6.305  -0.598  -3.001  1.00  0.00    -0.292 OA
BRANCH   8  10
HETATM   10  C   LIG     1       4.823  -0.314  -1.200  1.00  0.00     0.010 A 
HETATM   11  C   LIG     1       3.735  -0.754  -1.969  1.00  0.00     0.017 A 
HETATM   12  C   LIG     1       2.430  -0.669  -1.472  1.00  0.00     0.031 A 
HETATM   13  C   LIG     1       2.199  -0.142  -0.202  1.00  0.00     0.042 A 
HETATM   14  C   LIG     1       3.276   0.310   0.562  1.00  0.00     0.031 A 
HETATM   15  C   LIG     1       4.584   0.228   0.067  1.00  0.00     0.017 A 
BRANCH  13  16
HETATM   16  N   LIG     1       0.860  -0.062   0.288  1.00  0.00    -0.285 N 
HETATM   17  H   LIG     1       0.115  -0.001  -0.411  1.00  0.00     0.178 HD
BRANCH  16  18
HETATM   18  S   LIG     1       0.419  -0.934   1.676  1.00  0.00     0.227 S 
HETATM   19  O   LIG     1       1.423  -0.776   2.706  1.00  0.00    -0.206 OA
HETATM   20  O   LIG     1      -0.975  -0.633   1.932  1.00  0.00    -0.206 OA
HETATM   21  C   LIG     1       0.495  -2.608   1.075  1.00  0.00     0.186 C 
ENDBRANCH  16  18
ENDBRANCH  13  16
ENDBRANCH   8  10
ENDBRANCH   1   8
BRANCH   4  22
HETATM   22  C   LIG     1      11.665   0.277   0.024  1.00  0.00     0.241 C 
BRANCH  22  23
HETATM   23  C   LIG     1      12.774  -0.476  -0.713  1.00  0.00     0.087 C 
BRANCH  23  24
HETATM   24  C   LIG     1      14.138  -0.208  -0.125  1.00  0.00     0.036 A 
HETATM   25  N   LIG     1      14.193   0.398   1.086  1.00  0.00    -0.258 NA
HETATM   26  C   LIG     1      15.416   0.622   1.628  1.00  0.00     0.031 A 
HETATM   27  C   LIG     1      15.461   1.298   2.965  1.00  0.00     0.070 C 
HETATM   28  C   LIG     1      16.598   0.251   0.997  1.00  0.00     0.027 A 
HETATM   29  C   LIG     1      16.523  -0.377  -0.241  1.00  0.00     0.004 A 
HETATM   30  C   LIG     1      15.278  -0.615  -0.813  1.00  0.00     0.027 A 
ENDBRANCH  23  24
ENDBRANCH  22  23
ENDBRANCH   4  22
TORSDOF 7
