REMARK  4 active torsions:
REMARK  status: ('A' for Active; 'I' for Inactive)
REMARK    1  A    between atoms: C_7  and  N_8 
REMARK       I    between atoms: N_11  and  C_14 
REMARK    2  A    between atoms: C_14  and  C_16 
REMARK    3  A    between atoms: C_19  and  O_20 
REMARK    4  A    between atoms: C_22  and  O_23 
ROOT
HETATM    1  N   LIG     1      -8.341   1.099  -0.490  1.00  0.00    -0.378 N 
HETATM    2  C   LIG     1      -9.201   2.190  -0.971  1.00  0.00     0.143 C 
HETATM    3  C   LIG     1     -10.432   2.380  -0.067  1.00  0.00     0.146 C 
HETATM    4  N   LIG     1     -11.208   1.145   0.107  1.00  0.00    -0.345 N 
HETATM    5  C   LIG     1     -10.469  -0.108  -0.042  1.00  0.00     0.146 C 
HETATM    6  C   LIG     1      -8.976   0.029   0.296  1.00  0.00     0.143 C 
HETATM    7  C   LIG     1     -12.574   1.084   0.370  1.00  0.00     0.254 C 
HETATM    8  O   LIG     1     -13.231   0.047   0.373  1.00  0.00    -0.267 OA
ENDROOT
BRANCH   1   9
HETATM    9  C   LIG     1      -6.980   1.080  -0.768  1.00  0.00     0.030 A 
HETATM   10  C   LIG     1      -6.437   1.787  -1.856  1.00  0.00     0.031 A 
HETATM   11  C   LIG     1      -5.067   1.772  -2.148  1.00  0.00     0.032 A 
HETATM   12  C   LIG     1      -4.199   1.053  -1.336  1.00  0.00     0.041 A 
HETATM   13  N   LIG     1      -2.829   1.031  -1.624  1.00  0.00    -0.327 N 
HETATM   14  C   LIG     1      -4.692   0.333  -0.249  1.00  0.00    -0.029 A 
HETATM   15  C   LIG     1      -1.881   0.485  -0.797  1.00  0.00     0.222 C 
HETATM   16  H   LIG     1      -2.493   1.436  -2.489  1.00  0.00     0.169 HD
HETATM   17  O   LIG     1      -0.698   0.435  -1.125  1.00  0.00    -0.273 OA
HETATM   18  C   LIG     1      -2.354   0.063   0.576  1.00  0.00     0.108 C 
HETATM   19  C   LIG     1      -3.754  -0.530   0.547  1.00  0.00     0.050 C 
HETATM   20  C   LIG     1      -6.072   0.346   0.018  1.00  0.00     0.038 A 
ENDBRANCH   1   9
BRANCH   7  21
HETATM   21  C   LIG     1     -13.299   2.344   0.651  1.00  0.00     0.035 A 
HETATM   22  C   LIG     1     -12.979   3.105   1.779  1.00  0.00     0.020 A 
HETATM   23  C   LIG     1     -13.688   4.275   2.034  1.00  0.00     0.040 A 
HETATM   24  C   LIG     1     -14.705   4.675   1.161  1.00  0.00     0.101 A 
HETATM   25  C   LIG     1     -15.065   3.891   0.051  1.00  0.00     0.102 A 
HETATM   26  C   LIG     1     -14.349   2.717  -0.199  1.00  0.00     0.056 A 
BRANCH  24  27
HETATM   27  O   LIG     1     -15.388   5.825   1.477  1.00  0.00    -0.353 OA
HETATM   28  C   LIG     1     -14.899   6.916   0.696  1.00  0.00     0.210 C 
ENDBRANCH  24  27
BRANCH  25  29
HETATM   29  O   LIG     1     -16.111   4.349  -0.706  1.00  0.00    -0.353 OA
HETATM   30  C   LIG     1     -16.518   3.551  -1.810  1.00  0.00     0.210 C 
ENDBRANCH  25  29
ENDBRANCH   7  21
TORSDOF 4
