REMARK  2 active torsions:
REMARK  status: ('A' for Active; 'I' for Inactive)
REMARK    1  A    between atoms: N_3  and  C_4 
REMARK    2  A    between atoms: C_4  and  C_5 
ROOT
HETATM    1  O   LIG     1       0.194   0.765   0.050  1.00  0.00    -0.246 OA
HETATM    2  C   LIG     1      -0.554   1.726   0.252  1.00  0.00     0.333 A 
HETATM    3  N   LIG     1      -0.060   2.952   0.731  1.00  0.00    -0.281 N 
HETATM    4  C   LIG     1      -0.935   3.997   0.942  1.00  0.00     0.167 A 
HETATM    5  N   LIG     1      -0.625   5.243   1.401  1.00  0.00    -0.224 NA
HETATM    6  C   LIG     1      -1.778   5.881   1.430  1.00  0.00     0.210 A 
HETATM    7  N   LIG     1      -2.811   5.085   1.007  1.00  0.00    -0.343 N 
HETATM    8  C   LIG     1      -2.268   3.873   0.693  1.00  0.00     0.149 A 
HETATM    9  C   LIG     1      -2.876   2.688   0.206  1.00  0.00     0.281 A 
HETATM   10  O   LIG     1      -4.080   2.599  -0.016  1.00  0.00    -0.265 OA
HETATM   11  N   LIG     1      -1.949   1.650   0.011  1.00  0.00    -0.269 N 
HETATM   12  C   LIG     1      -2.495   0.398  -0.485  1.00  0.00     0.164 C 
HETATM   13  H   LIG     1      -3.787   5.342   0.939  1.00  0.00     0.167 HD
ENDROOT
BRANCH   3  14
HETATM   14  C   LIG     1       1.370   3.099   0.999  1.00  0.00     0.139 C 
BRANCH  14  15
HETATM   15  C   LIG     1       2.204   3.365  -0.270  1.00  0.00    -0.004 C 
HETATM   16  C   LIG     1       3.695   3.285   0.064  1.00  0.00     0.011 C 
HETATM   17  C   LIG     1       1.887   4.724  -0.897  1.00  0.00     0.011 C 
ENDBRANCH  14  15
ENDBRANCH   3  14
TORSDOF 2
