REMARK  3 active torsions:
REMARK  status: ('A' for Active; 'I' for Inactive)
REMARK    1  A    between atoms: O_1  and  C_14 
REMARK    2  A    between atoms: C_4  and  C_5 
REMARK    3  A    between atoms: C_4  and  C_15 
ROOT
HETATM    1  C   LIG     1       1.673  -0.583   0.204  1.00  0.00    -0.043 A 
HETATM    2  C   LIG     1      -0.581   0.332   0.250  1.00  0.00    -0.025 A 
HETATM    3  C   LIG     1      -1.094  -0.929  -0.136  1.00  0.00    -0.023 A 
HETATM    4  C   LIG     1       0.805   0.489   0.415  1.00  0.00     0.020 A 
HETATM    5  C   LIG     1       1.168  -1.824  -0.175  1.00  0.00     0.009 A 
HETATM    6  C   LIG     1      -0.206  -1.997  -0.344  1.00  0.00     0.013 A 
HETATM    7  C   LIG     1      -1.469   1.400   0.458  1.00  0.00     0.015 A 
HETATM    8  C   LIG     1      -2.480  -1.085  -0.301  1.00  0.00     0.049 A 
HETATM    9  C   LIG     1      -3.347  -0.013  -0.090  1.00  0.00     0.069 A 
HETATM   10  C   LIG     1      -2.843   1.227   0.289  1.00  0.00     0.037 A 
ENDROOT
BRANCH   1  11
HETATM   11  C   LIG     1       3.142  -0.400   0.384  1.00  0.00     0.115 C 
HETATM   12  C   LIG     1       3.546  -0.003   1.818  1.00  0.00     0.026 C 
BRANCH  11  13
HETATM   13  C   LIG     1       3.733   0.615  -0.600  1.00  0.00     0.181 C 
HETATM   14  O   LIG     1       5.078   0.763  -0.470  1.00  0.00    -0.647 OA
HETATM   15  O   LIG     1       3.080   1.233  -1.431  1.00  0.00    -0.647 OA
ENDBRANCH  11  13
ENDBRANCH   1  11
BRANCH   9  16
HETATM   16  O   LIG     1      -4.688  -0.182  -0.253  1.00  0.00    -0.356 OA
HETATM   17  C   LIG     1      -5.518   0.955  -0.018  1.00  0.00     0.210 C 
ENDBRANCH   9  16
TORSDOF 3
