REMARK  10 active torsions:
REMARK  status: ('A' for Active; 'I' for Inactive)
REMARK    1  A    between atoms: C_7  and  O_8 
REMARK    2  A    between atoms: O_8  and  C_9 
REMARK    3  A    between atoms: C_9  and  C_10 
REMARK    4  A    between atoms: C_10  and  O_11 
REMARK    5  A    between atoms: C_10  and  C_12 
REMARK    6  A    between atoms: C_12  and  N_13 
REMARK    7  A    between atoms: N_13  and  C_14 
REMARK    8  A    between atoms: C_14  and  C_15 
REMARK    9  A    between atoms: C_18  and  O_19 
REMARK   10  A    between atoms: C_21  and  O_22 
ROOT
HETATM    1  C   LIG     1     -10.571   0.449   0.478  1.00  0.00     0.168 C 
ENDROOT
BRANCH   1   2
HETATM    2  C   LIG     1      -9.167   0.817   0.008  1.00  0.00     0.209 C 
BRANCH   2   3
HETATM    3  O   LIG     1      -8.266   0.185   0.924  1.00  0.00    -0.349 OA
BRANCH   3   4
HETATM    4  C   LIG     1      -7.010  -0.072   0.447  1.00  0.00     0.069 A 
HETATM    5  C   LIG     1      -6.379   0.640  -0.576  1.00  0.00     0.039 A 
HETATM    6  C   LIG     1      -5.101   0.270  -1.000  1.00  0.00     0.033 A 
HETATM    7  C   LIG     1      -4.458  -0.805  -0.388  1.00  0.00     0.045 A 
HETATM    8  N   LIG     1      -3.184  -1.197  -0.819  1.00  0.00    -0.323 N 
HETATM    9  C   LIG     1      -5.071  -1.506   0.658  1.00  0.00    -0.007 A 
HETATM   10  C   LIG     1      -2.493  -2.246  -0.267  1.00  0.00     0.245 A 
HETATM   11  H   LIG     1      -2.724  -0.703  -1.573  1.00  0.00     0.169 HD
HETATM   12  O   LIG     1      -1.380  -2.581  -0.660  1.00  0.00    -0.268 OA
HETATM   13  C   LIG     1      -3.149  -2.972   0.839  1.00  0.00     0.075 A 
HETATM   14  C   LIG     1      -4.361  -2.624   1.277  1.00  0.00     0.019 A 
HETATM   15  C   LIG     1      -6.346  -1.128   1.078  1.00  0.00     0.050 A 
ENDBRANCH   3   4
ENDBRANCH   2   3
ENDBRANCH   1   2
BRANCH   1  16
HETATM   16  O   LIG     1     -10.742  -0.987   0.420  1.00  0.00    -0.392 OA
HETATM   17  H   LIG     1      -9.929  -1.368   0.816  1.00  0.00     0.210 HD
ENDBRANCH   1  16
BRANCH   1  18
HETATM   18  C   LIG     1     -11.661   1.044  -0.411  1.00  0.00     0.266 C 
BRANCH  18  19
HETATM   19  N   LIG     1     -12.887   0.220  -0.157  1.00  0.00    -0.069 N 
HETATM   20  H   LIG     1     -13.299   0.449   0.757  1.00  0.00     0.277 HD
HETATM   21  H   LIG     1     -12.506  -0.744  -0.039  1.00  0.00     0.277 HD
BRANCH  19  22
HETATM   22  C   LIG     1     -13.930   0.244  -1.213  1.00  0.00     0.271 C 
BRANCH  22  23
HETATM   23  C   LIG     1     -15.087  -0.646  -0.859  1.00  0.00    -0.030 A 
HETATM   24  C   LIG     1     -15.051  -2.010  -1.172  1.00  0.00     0.012 A 
HETATM   25  C   LIG     1     -16.103  -2.852  -0.803  1.00  0.00     0.040 A 
HETATM   26  C   LIG     1     -17.207  -2.345  -0.112  1.00  0.00     0.101 A 
HETATM   27  C   LIG     1     -17.252  -0.974   0.213  1.00  0.00     0.102 A 
HETATM   28  C   LIG     1     -16.192  -0.137  -0.158  1.00  0.00     0.048 A 
BRANCH  26  29
HETATM   29  O   LIG     1     -18.280  -3.098   0.296  1.00  0.00    -0.353 OA
HETATM   30  C   LIG     1     -18.345  -4.450  -0.137  1.00  0.00     0.210 C 
ENDBRANCH  26  29
BRANCH  27  31
HETATM   31  O   LIG     1     -18.362  -0.555   0.904  1.00  0.00    -0.353 OA
HETATM   32  C   LIG     1     -18.557   0.843   1.070  1.00  0.00     0.210 C 
ENDBRANCH  27  31
ENDBRANCH  22  23
ENDBRANCH  19  22
ENDBRANCH  18  19
ENDBRANCH   1  18
TORSDOF 10
