REMARK  15 active torsions:
REMARK  status: ('A' for Active; 'I' for Inactive)
REMARK       I    between atoms: C_2  and  N_3 
REMARK    1  A    between atoms: C_2  and  C_18 
REMARK    2  A    between atoms: N_3  and  C_4 
REMARK    3  A    between atoms: C_4  and  C_5 
REMARK    4  A    between atoms: C_8  and  C_9 
REMARK    5  A    between atoms: C_9  and  C_10 
REMARK    6  A    between atoms: C_10  and  O_11 
REMARK    7  A    between atoms: C_10  and  C_12 
REMARK    8  A    between atoms: C_12  and  O_13 
REMARK    9  A    between atoms: C_14  and  O_15 
REMARK   10  A    between atoms: C_18  and  C_19 
REMARK   11  A    between atoms: C_19  and  C_20 
REMARK   12  A    between atoms: C_20  and  C_21 
REMARK   13  A    between atoms: C_21  and  C_22 
REMARK   14  A    between atoms: C_22  and  C_23 
REMARK   15  A    between atoms: C_23  and  C_24 
ROOT
HETATM    1  C   LIG     1      -4.456   0.336   1.260  1.00  0.00    -0.038 A 
HETATM    2  C   LIG     1      -5.325  -0.131   2.251  1.00  0.00     0.009 A 
HETATM    3  C   LIG     1      -6.693  -0.230   1.998  1.00  0.00     0.011 A 
HETATM    4  C   LIG     1      -7.219   0.134   0.748  1.00  0.00    -0.022 A 
HETATM    5  C   LIG     1      -6.347   0.600  -0.255  1.00  0.00     0.075 A 
HETATM    6  C   LIG     1      -4.975   0.690   0.005  1.00  0.00     0.046 A 
ENDROOT
BRANCH   1   7
HETATM    7  C   LIG     1      -2.976   0.407   1.513  1.00  0.00     0.161 C 
BRANCH   7   8
HETATM    8  N   LIG     1      -2.311  -0.794   1.059  1.00  0.00    -0.357 N 
HETATM    9  C   LIG     1      -0.935  -0.883   1.044  1.00  0.00     0.217 C 
HETATM   10  O   LIG     1      -0.193   0.027   1.400  1.00  0.00    -0.274 OA
HETATM   11  H   LIG     1      -2.874  -1.580   0.755  1.00  0.00     0.162 HD
BRANCH   9  12
HETATM   12  C   LIG     1      -0.442  -2.228   0.543  1.00  0.00     0.103 C 
BRANCH  12  13
HETATM   13  C   LIG     1       1.082  -2.324   0.546  1.00  0.00     0.009 C 
BRANCH  13  14
HETATM   14  C   LIG     1       1.558  -3.692   0.056  1.00  0.00     0.000 C 
BRANCH  14  15
HETATM   15  C   LIG     1       3.085  -3.782   0.062  1.00  0.00     0.000 C 
BRANCH  15  16
HETATM   16  C   LIG     1       3.566  -5.152  -0.418  1.00  0.00     0.000 C 
BRANCH  16  17
HETATM   17  C   LIG     1       5.094  -5.240  -0.405  1.00  0.00    -0.000 C 
BRANCH  17  18
HETATM   18  C   LIG     1       5.578  -6.610  -0.877  1.00  0.00    -0.005 C 
HETATM   19  C   LIG     1       7.096  -6.698  -0.869  1.00  0.00     0.005 C 
ENDBRANCH  17  18
ENDBRANCH  16  17
ENDBRANCH  15  16
ENDBRANCH  14  15
ENDBRANCH  13  14
ENDBRANCH  12  13
ENDBRANCH   9  12
ENDBRANCH   7   8
ENDBRANCH   1   7
BRANCH   5  20
HETATM   20  O   LIG     1      -6.928   0.897  -1.463  1.00  0.00    -0.355 OA
HETATM   21  C   LIG     1      -6.149   1.658  -2.382  1.00  0.00     0.210 C 
ENDBRANCH   5  20
BRANCH   4  22
HETATM   22  C   LIG     1      -8.712   0.000   0.512  1.00  0.00     0.075 C 
BRANCH  22  23
HETATM   23  C   LIG     1      -9.059  -1.230  -0.336  1.00  0.00     0.146 C 
BRANCH  23  24
HETATM   24  O   LIG     1      -8.884  -0.970  -1.739  1.00  0.00    -0.393 OA
HETATM   25  H   LIG     1      -8.082  -0.414  -1.828  1.00  0.00     0.210 HD
ENDBRANCH  23  24
BRANCH  23  26
HETATM   26  C   LIG     1     -10.526  -1.628  -0.166  1.00  0.00     0.196 C 
BRANCH  26  27
HETATM   27  O   LIG     1     -10.815  -2.697  -1.068  1.00  0.00    -0.398 OA
HETATM   28  H   LIG     1     -10.328  -2.454  -1.884  1.00  0.00     0.209 HD
ENDBRANCH  26  27
ENDBRANCH  23  26
ENDBRANCH  22  23
ENDBRANCH   4  22
TORSDOF 15
