REMARK  7 active torsions:
REMARK  status: ('A' for Active; 'I' for Inactive)
REMARK    1  A    between atoms: O_1  and  C_13 
REMARK    2  A    between atoms: O_2  and  C_14 
REMARK    3  A    between atoms: O_3  and  C_15 
REMARK    4  A    between atoms: N_6  and  C_16 
REMARK    5  A    between atoms: N_7  and  C_18 
REMARK    6  A    between atoms: C_8  and  C_9 
REMARK    7  A    between atoms: C_8  and  C_10 
ROOT
HETATM    1  C   LIG     1       1.083  -0.331   1.755  1.00  0.00     0.082 C 
ENDROOT
BRANCH   1   2
HETATM    2  C   LIG     1      -0.253  -0.151   1.117  1.00  0.00    -0.048 A 
HETATM    3  C   LIG     1      -0.891  -1.236   0.517  1.00  0.00     0.047 A 
HETATM    4  C   LIG     1      -2.141  -1.067  -0.080  1.00  0.00     0.104 A 
HETATM    5  C   LIG     1      -2.751   0.187  -0.077  1.00  0.00     0.135 A 
HETATM    6  C   LIG     1      -2.113   1.272   0.523  1.00  0.00     0.104 A 
HETATM    7  C   LIG     1      -0.864   1.103   1.120  1.00  0.00     0.047 A 
BRANCH   4   8
HETATM    8  O   LIG     1      -2.753  -2.136  -0.662  1.00  0.00    -0.353 OA
HETATM    9  C   LIG     1      -3.609  -2.922   0.164  1.00  0.00     0.210 C 
ENDBRANCH   4   8
BRANCH   5  10
HETATM   10  O   LIG     1      -3.973   0.352  -0.661  1.00  0.00    -0.351 OA
HETATM   11  C   LIG     1      -4.070   0.056  -2.052  1.00  0.00     0.210 C 
ENDBRANCH   5  10
BRANCH   6  12
HETATM   12  O   LIG     1      -2.699   2.502   0.533  1.00  0.00    -0.353 OA
HETATM   13  C   LIG     1      -2.412   3.365  -0.566  1.00  0.00     0.210 C 
ENDBRANCH   6  12
ENDBRANCH   1   2
BRANCH   1  14
HETATM   14  C   LIG     1       2.249  -0.102   0.815  1.00  0.00     0.010 A 
HETATM   15  C   LIG     1       2.802  -1.105   0.073  1.00  0.00     0.148 A 
HETATM   16  N   LIG     1       3.840  -0.905  -0.765  1.00  0.00    -0.045 NA
HETATM   17  C   LIG     1       4.294   0.362  -0.815  1.00  0.00     0.721 A 
HETATM   18  N   LIG     1       3.822   1.418  -0.127  1.00  0.00    -0.075 NA
HETATM   19  C   LIG     1       2.784   1.148   0.691  1.00  0.00     0.147 A 
BRANCH  15  20
HETATM   20  N   LIG     1       2.272  -2.415   0.177  1.00  0.00    -0.383 N 
HETATM   21  H   LIG     1       1.936  -2.738   1.074  1.00  0.00     0.157 HD
HETATM   22  H   LIG     1       2.704  -3.112  -0.419  1.00  0.00     0.157 HD
ENDBRANCH  15  20
BRANCH  17  23
HETATM   23  N   LIG     1       5.382   0.608  -1.682  1.00  0.00    -0.231 N 
HETATM   24  H   LIG     1       5.758   1.543  -1.753  1.00  0.00     0.174 HD
HETATM   25  H   LIG     1       5.771  -0.154  -2.219  1.00  0.00     0.174 HD
ENDBRANCH  17  23
ENDBRANCH   1  14
TORSDOF 7
