REMARK  4 active torsions:
REMARK  status: ('A' for Active; 'I' for Inactive)
REMARK    1  A    between atoms: N_6  and  C_14 
REMARK    2  A    between atoms: C_8  and  C_11 
REMARK    3  A    between atoms: C_17  and  O_18 
REMARK    4  A    between atoms: C_20  and  N_21 
ROOT
HETATM    1  F   LIG     1      -0.337   0.016  -0.444  1.00  0.00    -0.204 F 
HETATM    2  C   LIG     1      -1.413   0.773  -0.177  1.00  0.00     0.146 C 
HETATM    3  C   LIG     1      -2.635   0.123  -0.077  1.00  0.00     0.062 C 
HETATM    4  C   LIG     1      -3.806   0.860   0.134  1.00  0.00     0.044 C 
HETATM    5  C   LIG     1      -3.794   2.258   0.260  1.00  0.00     0.084 C 
HETATM    6  N   LIG     1      -5.001   2.975   0.400  1.00  0.00    -0.351 N 
HETATM    7  C   LIG     1      -6.142   2.385   0.566  1.00  0.00     0.088 C 
HETATM    8  C   LIG     1      -6.318   0.922   0.365  1.00  0.00     0.200 C 
HETATM    9  C   LIG     1      -5.071   0.116   0.262  1.00  0.00     0.181 C 
HETATM   10  O   LIG     1      -5.064  -1.110   0.296  1.00  0.00    -0.291 OA
HETATM   11  C   LIG     1      -2.496   2.865   0.270  1.00  0.00     0.125 C 
HETATM   12  C   LIG     1      -1.287   2.163  -0.023  1.00  0.00     0.105 C 
ENDROOT
BRANCH  12  13
HETATM   13  N   LIG     1      -0.048   2.796  -0.165  1.00  0.00    -0.372 N 
HETATM   14  C   LIG     1       0.053   4.138  -0.760  1.00  0.00     0.150 C 
HETATM   15  C   LIG     1       1.387   4.297  -1.506  1.00  0.00     0.252 C 
HETATM   16  N   LIG     1       2.564   4.066  -0.590  1.00  0.00    -0.068 N 
HETATM   17  C   LIG     1       2.296   3.135   0.577  1.00  0.00     0.199 C 
HETATM   18  H   LIG     1       2.892   4.969  -0.218  1.00  0.00     0.277 HD
HETATM   19  H   LIG     1       3.347   3.711  -1.160  1.00  0.00     0.277 HD
HETATM   20  C   LIG     1       3.607   2.465   0.965  1.00  0.00     0.041 C 
HETATM   21  C   LIG     1       1.196   2.113   0.227  1.00  0.00     0.155 C 
ENDBRANCH  12  13
BRANCH  11  22
HETATM   22  O   LIG     1      -2.387   4.194   0.649  1.00  0.00    -0.351 OA
HETATM   23  C   LIG     1      -2.032   4.286   2.036  1.00  0.00     0.210 C 
ENDBRANCH  11  22
BRANCH   6  24
HETATM   24  C   LIG     1      -5.038   4.424   0.344  1.00  0.00     0.089 A 
HETATM   25  C   LIG     1      -6.071   5.110  -0.535  1.00  0.00     0.028 A 
HETATM   26  C   LIG     1      -4.638   5.127  -0.939  1.00  0.00     0.028 A 
ENDBRANCH   6  24
BRANCH   8  27
HETATM   27  C   LIG     1      -7.090   0.786  -0.940  1.00  0.00     0.190 C 
HETATM   28  O   LIG     1      -6.449   1.200  -1.950  1.00  0.00    -0.647 OA
HETATM   29  O   LIG     1      -8.274   0.375  -0.831  1.00  0.00    -0.647 OA
ENDBRANCH   8  27
TORSDOF 4
