REMARK  13 active torsions:
REMARK  status: ('A' for Active; 'I' for Inactive)
REMARK    1  A    between atoms: S_1  and  C_3 
REMARK    2  A    between atoms: S_1  and  C_6 
REMARK    3  A    between atoms: C_3  and  C_4 
REMARK    4  A    between atoms: C_6  and  C_7 
REMARK    5  A    between atoms: C_7  and  C_8 
REMARK    6  A    between atoms: C_8  and  N_9 
REMARK    7  A    between atoms: N_9  and  C_10 
REMARK    8  A    between atoms: N_9  and  C_12 
REMARK    9  A    between atoms: C_12  and  C_13 
REMARK   10  A    between atoms: C_13  and  O_14 
REMARK   11  A    between atoms: C_13  and  C_15 
REMARK   12  A    between atoms: C_15  and  O_16 
REMARK   13  A    between atoms: O_16  and  C_17 
ROOT
HETATM    1  C   LIG     1      10.080  -0.066  -0.273  1.00  0.00     0.069 A 
HETATM    2  C   LIG     1      10.504   1.059  -0.987  1.00  0.00     0.038 A 
HETATM    3  C   LIG     1      11.864   1.344  -1.127  1.00  0.00     0.025 A 
HETATM    4  C   LIG     1      12.815   0.500  -0.550  1.00  0.00     0.044 A 
HETATM    5  C   LIG     1      14.212   0.786  -0.692  1.00  0.00     0.099 C 
HETATM    6  N   LIG     1      15.344   1.017  -0.806  1.00  0.00    -0.191 NA
HETATM    7  C   LIG     1      12.395  -0.625   0.167  1.00  0.00     0.025 A 
HETATM    8  C   LIG     1      11.031  -0.908   0.305  1.00  0.00     0.038 A 
ENDROOT
BRANCH   1   9
HETATM    9  O   LIG     1       8.723  -0.227  -0.218  1.00  0.00    -0.349 OA
BRANCH   9  10
HETATM   10  C   LIG     1       8.226  -1.366   0.490  1.00  0.00     0.209 C 
BRANCH  10  11
HETATM   11  C   LIG     1       6.704  -1.316   0.371  1.00  0.00     0.168 C 
BRANCH  11  12
HETATM   12  C   LIG     1       6.017  -2.464   1.119  1.00  0.00     0.268 C 
BRANCH  12  13
HETATM   13  N   LIG     1       4.638  -2.636   0.485  1.00  0.00    -0.069 N 
HETATM   14  H   LIG     1       4.832  -2.311  -0.491  1.00  0.00     0.280 HD
BRANCH  13  15
HETATM   15  C   LIG     1       3.606  -1.697   1.072  1.00  0.00     0.235 C 
BRANCH  15  16
HETATM   16  C   LIG     1       2.584  -1.312   0.006  1.00  0.00     0.040 C 
BRANCH  16  17
HETATM   17  C   LIG     1       1.548  -0.344   0.570  1.00  0.00     0.110 C 
BRANCH  17  18
HETATM   18  S   LIG     1       0.401   0.179  -0.748  1.00  0.00     0.015 S 
HETATM   19  O   LIG     1       1.199   0.997  -1.720  1.00  0.00    -0.258 OA
BRANCH  18  20
HETATM   20  C   LIG     1      -0.558   1.334   0.288  1.00  0.00     0.108 C 
BRANCH  20  21
HETATM   21  C   LIG     1      -1.660   1.994  -0.531  1.00  0.00     0.008 C 
HETATM   22  C   LIG     1      -2.487   2.945   0.319  1.00  0.00     0.006 C 
ENDBRANCH  20  21
ENDBRANCH  18  20
ENDBRANCH  17  18
ENDBRANCH  16  17
ENDBRANCH  15  16
ENDBRANCH  13  15
BRANCH  13  23
HETATM   23  C   LIG     1       4.180  -4.074   0.427  1.00  0.00     0.230 C 
HETATM   24  C   LIG     1       4.833  -4.789  -0.743  1.00  0.00     0.034 C 
ENDBRANCH  13  23
ENDBRANCH  12  13
ENDBRANCH  11  12
BRANCH  11  25
HETATM   25  O   LIG     1       6.309  -1.437  -1.014  1.00  0.00    -0.392 OA
HETATM   26  H   LIG     1       6.890  -0.822  -1.510  1.00  0.00     0.210 HD
ENDBRANCH  11  25
ENDBRANCH  10  11
ENDBRANCH   9  10
ENDBRANCH   1   9
TORSDOF 13
