REMARK  8 active torsions:
REMARK  status: ('A' for Active; 'I' for Inactive)
REMARK    1  A    between atoms: S_1  and  N_4 
REMARK    2  A    between atoms: N_4  and  C_5 
REMARK    3  A    between atoms: C_8  and  S_9 
REMARK    4  A    between atoms: S_9  and  N_12 
REMARK    5  A    between atoms: N_12  and  C_14 
REMARK    6  A    between atoms: C_14  and  C_15 
REMARK    7  A    between atoms: C_15  and  N_16 
REMARK    8  A    between atoms: N_16  and  C_18 
ROOT
HETATM    1  N   LIG     1      -8.188   1.281   1.177  1.00  0.00    -0.309 N 
HETATM    2  C   LIG     1      -8.408  -0.040   0.558  1.00  0.00     0.163 C 
ENDROOT
BRANCH   1   3
HETATM    3  S   LIG     1      -6.698   1.570   1.951  1.00  0.00     0.260 S 
HETATM    4  O   LIG     1      -6.390   0.434   2.796  1.00  0.00    -0.200 OA
HETATM    5  O   LIG     1      -6.724   2.910   2.504  1.00  0.00    -0.200 OA
BRANCH   3   6
HETATM    6  C   LIG     1      -5.525   1.563   0.612  1.00  0.00     0.079 A 
HETATM    7  C   LIG     1      -5.132   2.764   0.017  1.00  0.00     0.027 A 
HETATM    8  C   LIG     1      -4.178   2.749  -1.007  1.00  0.00     0.031 A 
HETATM    9  C   LIG     1      -3.603   1.543  -1.422  1.00  0.00     0.042 A 
HETATM   10  C   LIG     1      -3.996   0.348  -0.815  1.00  0.00     0.031 A 
HETATM   11  C   LIG     1      -4.946   0.355   0.212  1.00  0.00     0.027 A 
BRANCH   9  12
HETATM   12  N   LIG     1      -2.650   1.568  -2.490  1.00  0.00    -0.285 N 
HETATM   13  H   LIG     1      -2.676   2.384  -3.106  1.00  0.00     0.178 HD
BRANCH  12  14
HETATM   14  S   LIG     1      -1.102   0.912  -2.286  1.00  0.00     0.227 S 
HETATM   15  O   LIG     1      -1.188  -0.419  -1.724  1.00  0.00    -0.206 OA
HETATM   16  O   LIG     1      -0.384   1.156  -3.521  1.00  0.00    -0.206 OA
HETATM   17  C   LIG     1      -0.416   1.999  -1.053  1.00  0.00     0.186 C 
ENDBRANCH  12  14
ENDBRANCH   9  12
ENDBRANCH   3   6
ENDBRANCH   1   3
BRANCH   1  18
HETATM   18  C   LIG     1      -8.822   2.406   0.436  1.00  0.00     0.155 C 
BRANCH  18  19
HETATM   19  C   LIG     1      -9.922   3.029   1.306  1.00  0.00     0.161 C 
BRANCH  19  20
HETATM   20  N   LIG     1     -10.546   4.177   0.637  1.00  0.00    -0.218 N 
HETATM   21  C   LIG     1      -9.990   5.486   0.912  1.00  0.00     0.169 C 
BRANCH  20  22
HETATM   22  C   LIG     1     -11.566   3.923  -0.232  1.00  0.00     0.705 A 
HETATM   23  N   LIG     1     -11.777   2.758  -0.816  1.00  0.00    -0.062 NA
HETATM   24  C   LIG     1     -12.828   2.934  -1.672  1.00  0.00     0.103 A 
HETATM   25  C   LIG     1     -13.412   2.020  -2.563  1.00  0.00     0.034 A 
HETATM   26  C   LIG     1     -13.324   4.228  -1.586  1.00  0.00     0.080 A 
HETATM   27  C   LIG     1     -14.485   2.444  -3.353  1.00  0.00     0.002 A 
HETATM   28  C   LIG     1     -14.968   3.750  -3.256  1.00  0.00     0.002 A 
HETATM   29  C   LIG     1     -14.399   4.671  -2.368  1.00  0.00     0.032 A 
HETATM   30  N   LIG     1     -12.549   4.822  -0.610  1.00  0.00    -0.184 N 
HETATM   31  C   LIG     1     -12.788   6.143  -0.083  1.00  0.00     0.175 C 
ENDBRANCH  20  22
ENDBRANCH  19  20
ENDBRANCH  18  19
ENDBRANCH   1  18
TORSDOF 8
