REMARK  11 active torsions:
REMARK  status: ('A' for Active; 'I' for Inactive)
REMARK    1  A    between atoms: S_1  and  N_4 
REMARK    2  A    between atoms: N_4  and  C_5 
REMARK    3  A    between atoms: C_8  and  O_9 
REMARK    4  A    between atoms: O_9  and  C_10 
REMARK    5  A    between atoms: C_10  and  C_11 
REMARK    6  A    between atoms: C_11  and  N_12 
REMARK    7  A    between atoms: N_12  and  C_14 
REMARK    8  A    between atoms: C_14  and  C_15 
REMARK    9  A    between atoms: C_15  and  C_16 
REMARK   10  A    between atoms: C_19  and  N_20 
REMARK   11  A    between atoms: N_20  and  S_21 
ROOT
HETATM    1  N   LIG     1     -10.660  -0.687   0.303  1.00  0.00    -0.073 N 
HETATM    2  C   LIG     1     -10.902   0.703   0.843  1.00  0.00     0.269 C 
HETATM    3  H   LIG     1     -10.495  -0.604  -0.711  1.00  0.00     0.279 HD
ENDROOT
BRANCH   1   4
HETATM    4  C   LIG     1      -9.401  -1.323   0.888  1.00  0.00     0.261 C 
BRANCH   4   5
HETATM    5  C   LIG     1      -8.119  -0.574   0.490  1.00  0.00     0.203 C 
BRANCH   5   6
HETATM    6  O   LIG     1      -7.001  -1.387   0.852  1.00  0.00    -0.349 OA
BRANCH   6   7
HETATM    7  C   LIG     1      -5.753  -0.914   0.545  1.00  0.00     0.069 A 
HETATM    8  C   LIG     1      -5.456   0.331  -0.010  1.00  0.00     0.039 A 
HETATM    9  C   LIG     1      -4.124   0.688  -0.270  1.00  0.00     0.033 A 
HETATM   10  C   LIG     1      -3.080  -0.200   0.003  1.00  0.00     0.042 A 
HETATM   11  C   LIG     1      -3.375  -1.433   0.584  1.00  0.00     0.033 A 
HETATM   12  C   LIG     1      -4.704  -1.788   0.845  1.00  0.00     0.039 A 
BRANCH  10  13
HETATM   13  N   LIG     1      -1.736   0.239  -0.231  1.00  0.00    -0.285 N 
HETATM   14  H   LIG     1      -1.622   1.213  -0.523  1.00  0.00     0.178 HD
BRANCH  13  15
HETATM   15  S   LIG     1      -0.614  -0.775  -0.996  1.00  0.00     0.227 S 
HETATM   16  O   LIG     1       0.203   0.085  -1.827  1.00  0.00    -0.206 OA
HETATM   17  O   LIG     1      -1.265  -1.948  -1.537  1.00  0.00    -0.206 OA
HETATM   18  C   LIG     1       0.385  -1.264   0.392  1.00  0.00     0.186 C 
ENDBRANCH  13  15
ENDBRANCH  10  13
ENDBRANCH   6   7
ENDBRANCH   5   6
ENDBRANCH   4   5
ENDBRANCH   1   4
BRANCH   1  19
HETATM   19  C   LIG     1     -11.856  -1.605   0.510  1.00  0.00     0.239 C 
BRANCH  19  20
HETATM   20  C   LIG     1     -13.006  -1.243  -0.426  1.00  0.00     0.066 C 
BRANCH  20  21
HETATM   21  C   LIG     1     -14.154  -2.195  -0.220  1.00  0.00    -0.057 A 
HETATM   22  C   LIG     1     -15.051  -1.992   0.839  1.00  0.00     0.009 A 
HETATM   23  C   LIG     1     -16.102  -2.882   1.050  1.00  0.00     0.025 A 
HETATM   24  C   LIG     1     -16.253  -3.984   0.210  1.00  0.00     0.022 A 
HETATM   25  C   LIG     1     -15.372  -4.195  -0.850  1.00  0.00     0.025 A 
HETATM   26  C   LIG     1     -14.318  -3.306  -1.059  1.00  0.00     0.009 A 
BRANCH  24  27
HETATM   27  N   LIG     1     -17.392  -4.828   0.358  1.00  0.00    -0.186 NA
HETATM   28  H   LIG     1     -17.253  -5.802   0.069  1.00  0.00     0.145 HD
BRANCH  27  29
HETATM   29  S   LIG     1     -18.844  -4.227  -0.304  1.00  0.00     0.210 S 
HETATM   30  O   LIG     1     -18.653  -2.909  -0.869  1.00  0.00    -0.211 OA
HETATM   31  O   LIG     1     -19.411  -5.311  -1.079  1.00  0.00    -0.211 OA
HETATM   32  C   LIG     1     -19.812  -4.063   1.178  1.00  0.00     0.180 C 
ENDBRANCH  27  29
ENDBRANCH  24  27
ENDBRANCH  20  21
ENDBRANCH  19  20
ENDBRANCH   1  19
TORSDOF 11
