REMARK  12 active torsions:
REMARK  status: ('A' for Active; 'I' for Inactive)
REMARK    1  A    between atoms: C_4  and  C_5 
REMARK    2  A    between atoms: C_7  and  O_8 
REMARK    3  A    between atoms: C_10  and  O_11 
REMARK    4  A    between atoms: C_19  and  O_20 
REMARK    5  A    between atoms: C_22  and  O_23 
REMARK    6  A    between atoms: O_23  and  C_24 
REMARK    7  A    between atoms: C_29  and  N_30 
REMARK    8  A    between atoms: C_33  and  O_34 
REMARK    9  A    between atoms: C_37  and  O_38 
REMARK   10  A    between atoms: O_38  and  C_39 
REMARK   11  A    between atoms: C_43  and  O_44 
REMARK   12  A    between atoms: C_45  and  O_46 
ROOT
HETATM    1  O   LIG     1      -3.424  -1.244  -1.884  1.00  0.00    -0.265 OA
HETATM    2  C   LIG     1      -2.433  -1.182  -1.166  1.00  0.00     0.265 C 
HETATM    3  O   LIG     1      -2.370  -0.518   0.021  1.00  0.00    -0.312 OA
HETATM    4  C   LIG     1      -3.617  -0.016   0.568  1.00  0.00     0.168 C 
HETATM    5  C   LIG     1      -3.614  -0.384   2.087  1.00  0.00     0.107 C 
HETATM    6  C   LIG     1      -2.591   0.445   2.880  1.00  0.00     0.051 C 
HETATM    7  C   LIG     1      -5.035  -0.293   2.726  1.00  0.00     0.165 C 
HETATM    8  C   LIG     1      -6.098  -1.256   2.133  1.00  0.00     0.083 C 
HETATM    9  C   LIG     1      -7.486  -0.986   2.718  1.00  0.00     0.020 C 
HETATM   10  C   LIG     1      -5.762  -2.723   2.408  1.00  0.00     0.137 C 
HETATM   11  O   LIG     1      -5.380  -3.084   3.526  1.00  0.00    -0.297 OA
HETATM   12  C   LIG     1      -5.966  -3.725   1.267  1.00  0.00     0.054 C 
HETATM   13  C   LIG     1      -6.796  -4.884   1.820  1.00  0.00     0.018 C 
HETATM   14  C   LIG     1      -4.580  -4.117   0.703  1.00  0.00     0.051 C 
HETATM   15  C   LIG     1      -4.513  -5.006  -0.557  1.00  0.00     0.081 C 
HETATM   16  C   LIG     1      -5.266  -4.370  -1.737  1.00  0.00     0.049 C 
HETATM   17  C   LIG     1      -3.027  -5.410  -0.952  1.00  0.00     0.165 C 
HETATM   18  C   LIG     1      -2.150  -4.288  -1.617  1.00  0.00     0.043 C 
HETATM   19  C   LIG     1      -1.301  -4.918  -2.751  1.00  0.00     0.015 C 
HETATM   20  C   LIG     1      -1.178  -3.352  -0.784  1.00  0.00     0.144 C 
HETATM   21  C   LIG     1      -1.150  -1.936  -1.460  1.00  0.00     0.111 C 
HETATM   22  C   LIG     1       0.077  -1.075  -1.162  1.00  0.00     0.023 C 
ENDROOT
BRANCH  17  23
HETATM   23  O   LIG     1      -2.372  -5.997   0.178  1.00  0.00    -0.350 OA
BRANCH  23  24
HETATM   24  C   LIG     1      -1.927  -7.353   0.057  1.00  0.00     0.291 C 
HETATM   25  O   LIG     1      -1.273  -7.611  -1.183  1.00  0.00    -0.354 OA
HETATM   26  C   LIG     1      -0.606  -8.872  -1.226  1.00  0.00     0.122 C 
HETATM   27  C   LIG     1       0.085  -8.982  -2.579  1.00  0.00     0.040 C 
HETATM   28  C   LIG     1      -1.606 -10.015  -1.023  1.00  0.00     0.067 C 
HETATM   29  C   LIG     1      -2.355  -9.807   0.299  1.00  0.00     0.223 C 
HETATM   30  C   LIG     1      -3.022  -8.415   0.351  1.00  0.00     0.204 C 
BRANCH  29  31
HETATM   31  N   LIG     1      -3.307 -10.992   0.556  1.00  0.00    -0.072 N 
HETATM   32  C   LIG     1      -4.526 -11.085  -0.330  1.00  0.00     0.269 C 
HETATM   33  C   LIG     1      -3.700 -11.119   2.006  1.00  0.00     0.269 C 
HETATM   34  H   LIG     1      -2.764 -11.840   0.346  1.00  0.00     0.279 HD
ENDBRANCH  29  31
BRANCH  30  35
HETATM   35  O   LIG     1      -4.067  -8.360  -0.622  1.00  0.00    -0.389 OA
HETATM   36  H   LIG     1      -4.530  -7.494  -0.470  1.00  0.00     0.210 HD
ENDBRANCH  30  35
ENDBRANCH  23  24
ENDBRANCH  17  23
BRANCH  15  37
HETATM   37  O   LIG     1      -5.187  -6.256  -0.270  1.00  0.00    -0.388 OA
HETATM   38  H   LIG     1      -6.140  -6.124  -0.433  1.00  0.00     0.210 HD
ENDBRANCH  15  37
BRANCH  20  39
HETATM   39  O   LIG     1      -1.536  -3.254   0.598  1.00  0.00    -0.355 OA
BRANCH  39  40
HETATM   40  C   LIG     1      -0.455  -3.371   1.554  1.00  0.00     0.263 C 
HETATM   41  O   LIG     1       0.572  -2.420   1.319  1.00  0.00    -0.354 OA
HETATM   42  C   LIG     1       1.599  -2.411   2.316  1.00  0.00     0.152 C 
HETATM   43  C   LIG     1       2.572  -1.297   1.945  1.00  0.00     0.042 C 
HETATM   44  C   LIG     1       2.294  -3.782   2.404  1.00  0.00     0.181 C 
HETATM   45  C   LIG     1       1.270  -4.915   2.657  1.00  0.00     0.089 C 
HETATM   46  C   LIG     1       0.721  -4.881   4.096  1.00  0.00     0.049 C 
HETATM   47  C   LIG     1       0.106  -4.790   1.652  1.00  0.00     0.101 C 
BRANCH  44  48
HETATM   48  O   LIG     1       3.003  -4.050   1.183  1.00  0.00    -0.390 OA
HETATM   49  H   LIG     1       3.022  -5.024   1.093  1.00  0.00     0.210 HD
ENDBRANCH  44  48
BRANCH  45  50
HETATM   50  O   LIG     1       1.874  -6.199   2.364  1.00  0.00    -0.383 OA
HETATM   51  C   LIG     1       2.858  -6.671   3.278  1.00  0.00     0.202 C 
ENDBRANCH  45  50
ENDBRANCH  39  40
ENDBRANCH  20  39
BRANCH   7  52
HETATM   52  O   LIG     1      -4.952  -0.523   4.141  1.00  0.00    -0.392 OA
HETATM   53  H   LIG     1      -4.728  -1.479   4.233  1.00  0.00     0.210 HD
ENDBRANCH   7  52
BRANCH   4  54
HETATM   54  C   LIG     1      -3.737   1.492   0.294  1.00  0.00     0.031 C 
HETATM   55  C   LIG     1      -3.912   1.824  -1.182  1.00  0.00     0.007 C 
ENDBRANCH   4  54
BRANCH   5  56
HETATM   56  O   LIG     1      -3.176  -1.744   2.225  1.00  0.00    -0.385 OA
HETATM   57  H   LIG     1      -2.508  -1.919   1.526  1.00  0.00     0.210 HD
ENDBRANCH   5  56
TORSDOF 12
