REMARK  5 active torsions:
REMARK  status: ('A' for Active; 'I' for Inactive)
REMARK    1  A    between atoms: N_6  and  C_12 
REMARK    2  A    between atoms: N_15  and  C_18 
REMARK    3  A    between atoms: C_18  and  C_19 
REMARK    4  A    between atoms: C_19  and  C_20 
REMARK    5  A    between atoms: C_20  and  N_21 
ROOT
HETATM    1  C   LIG     1      -6.922  -0.802  -0.170  1.00  0.00     0.098 C 
HETATM    2  C   LIG     1      -7.401   0.025   1.021  1.00  0.00     0.053 C 
HETATM    3  C   LIG     1      -8.718   0.724   0.704  1.00  0.00     0.237 C 
HETATM    4  N   LIG     1      -9.759  -0.296   0.274  1.00  0.00    -0.071 N 
HETATM    5  C   LIG     1      -9.304  -1.099  -0.930  1.00  0.00     0.237 C 
HETATM    6  C   LIG     1      -7.985  -1.802  -0.621  1.00  0.00     0.053 C 
HETATM    7  H   LIG     1      -9.891  -0.949   1.062  1.00  0.00     0.279 HD
ENDROOT
BRANCH   4   8
HETATM    8  C   LIG     1     -11.110   0.392   0.056  1.00  0.00     0.236 C 
BRANCH   8   9
HETATM    9  C   LIG     1     -12.256  -0.625   0.029  1.00  0.00     0.048 C 
BRANCH   9  10
HETATM   10  C   LIG     1     -13.620   0.063  -0.045  1.00  0.00     0.135 C 
BRANCH  10  11
HETATM   11  N   LIG     1     -14.776  -0.858  -0.077  1.00  0.00    -0.296 N 
HETATM   12  C   LIG     1     -16.022  -0.558  -0.129  1.00  0.00     0.067 A 
HETATM   13  C   LIG     1     -16.699   0.733  -0.170  1.00  0.00     0.032 A 
HETATM   14  C   LIG     1     -16.800  -1.830  -0.146  1.00  0.00     0.089 A 
HETATM   15  C   LIG     1     -18.037   0.691  -0.223  1.00  0.00     0.002 A 
HETATM   16  C   LIG     1     -18.808  -0.540  -0.240  1.00  0.00     0.002 A 
HETATM   17  C   LIG     1     -18.258  -1.760  -0.205  1.00  0.00     0.034 A 
HETATM   18  N   LIG     1     -16.034  -2.870  -0.104  1.00  0.00    -0.192 NA
HETATM   19  C   LIG     1     -14.733  -2.434  -0.057  1.00  0.00     0.349 A 
HETATM   20  O   LIG     1     -13.672  -3.026  -0.009  1.00  0.00    -0.244 OA
ENDBRANCH  10  11
ENDBRANCH   9  10
ENDBRANCH   8   9
ENDBRANCH   4   8
BRANCH   1  21
HETATM   21  N   LIG     1      -5.646  -1.490   0.146  1.00  0.00    -0.291 N 
HETATM   22  C   LIG     1      -4.483  -1.385  -0.386  1.00  0.00     0.068 A 
HETATM   23  C   LIG     1      -3.987  -0.569  -1.488  1.00  0.00     0.034 A 
HETATM   24  C   LIG     1      -3.565  -2.309   0.345  1.00  0.00     0.090 A 
HETATM   25  C   LIG     1      -2.687  -0.708  -1.787  1.00  0.00     0.026 A 
HETATM   26  C   LIG     1      -1.784  -1.604  -1.083  1.00  0.00     0.036 A 
HETATM   27 CL   LIG     1      -0.141  -1.643  -1.616  1.00  0.00    -0.084 Cl
HETATM   28  C   LIG     1      -2.165  -2.383  -0.062  1.00  0.00     0.058 A 
HETATM   29  N   LIG     1      -4.168  -2.952   1.290  1.00  0.00    -0.192 NA
HETATM   30  C   LIG     1      -5.481  -2.558   1.296  1.00  0.00     0.349 A 
HETATM   31  O   LIG     1      -6.446  -2.869   1.966  1.00  0.00    -0.244 OA
ENDBRANCH   1  21
TORSDOF 5
