REMARK  1 active torsions:
REMARK  status: ('A' for Active; 'I' for Inactive)
REMARK    1  A    between atoms: N_5  and  C_7 
ROOT
HETATM    1  O   LIG     1       0.938   2.565  -0.028  1.00  0.00    -0.267 OA
HETATM    2  O   LIG     1       0.058  -1.976   0.236  1.00  0.00    -0.267 OA
HETATM    3  N   LIG     1       0.077   0.378   0.119  1.00  0.00    -0.266 N 
HETATM    4  C   LIG     1       1.047   1.355   0.036  1.00  0.00     0.262 A 
HETATM    5  C   LIG     1       0.609  -0.893   0.167  1.00  0.00     0.262 A 
HETATM    6  C   LIG     1       2.325   0.644   0.040  1.00  0.00     0.048 A 
HETATM    7  C   LIG     1       2.060  -0.715   0.120  1.00  0.00     0.048 A 
HETATM    8  C   LIG     1       3.613   1.135  -0.021  1.00  0.00     0.018 A 
HETATM    9  C   LIG     1       3.070  -1.656   0.142  1.00  0.00     0.018 A 
HETATM   10  C   LIG     1       4.652   0.200   0.001  1.00  0.00     0.001 A 
HETATM   11  C   LIG     1       4.383  -1.181   0.081  1.00  0.00     0.001 A 
ENDROOT
BRANCH   3  12
HETATM   12  C   LIG     1      -1.335   0.654   0.152  1.00  0.00     0.189 C 
HETATM   13  C   LIG     1      -1.969   0.100   1.417  1.00  0.00     0.045 C 
HETATM   14  C   LIG     1      -3.460   0.385   1.401  1.00  0.00     0.106 C 
HETATM   15  C   LIG     1      -4.120  -0.193   0.172  1.00  0.00     0.224 C 
HETATM   16  O   LIG     1      -5.311  -0.503   0.169  1.00  0.00    -0.273 OA
HETATM   17  N   LIG     1      -3.310  -0.292  -0.956  1.00  0.00    -0.296 N 
HETATM   18  C   LIG     1      -1.966   0.051  -1.090  1.00  0.00     0.247 C 
HETATM   19  H   LIG     1      -3.755  -0.670  -1.788  1.00  0.00     0.171 HD
HETATM   20  O   LIG     1      -1.363  -0.057  -2.158  1.00  0.00    -0.271 OA
ENDBRANCH   3  12
TORSDOF 1
