REMARK  10 active torsions:
REMARK  status: ('A' for Active; 'I' for Inactive)
REMARK    1  A    between atoms: C_8  and  N_9 
REMARK    2  A    between atoms: N_9  and  C_10 
REMARK    3  A    between atoms: C_10  and  C_11 
REMARK    4  A    between atoms: C_11  and  C_12 
REMARK    5  A    between atoms: C_12  and  N_13 
REMARK    6  A    between atoms: N_13  and  C_15 
REMARK    7  A    between atoms: C_15  and  C_16 
REMARK    8  A    between atoms: C_16  and  C_17 
REMARK    9  A    between atoms: C_20  and  O_21 
REMARK   10  A    between atoms: C_23  and  O_24 
ROOT
HETATM    1  N   LIG     1      -5.341  -3.303   0.230  1.00  0.00    -0.075 N 
HETATM    2  C   LIG     1      -5.344  -4.783  -0.075  1.00  0.00     0.269 C 
HETATM    3  H   LIG     1      -5.177  -3.197   1.241  1.00  0.00     0.279 HD
ENDROOT
BRANCH   1   4
HETATM    4  C   LIG     1      -4.209  -2.564  -0.476  1.00  0.00     0.236 C 
BRANCH   4   5
HETATM    5  C   LIG     1      -2.846  -2.977   0.075  1.00  0.00     0.047 C 
BRANCH   5   6
HETATM    6  C   LIG     1      -1.730  -2.113  -0.520  1.00  0.00     0.121 C 
BRANCH   6   7
HETATM    7  N   LIG     1      -0.450  -2.541  -0.004  1.00  0.00    -0.384 N 
HETATM    8  H   LIG     1      -0.434  -3.321   0.661  1.00  0.00     0.159 HD
BRANCH   7   9
HETATM    9  C   LIG     1       0.829  -2.058  -0.264  1.00  0.00     0.121 A 
HETATM   10  C   LIG     1       1.249  -1.061  -1.053  1.00  0.00     0.085 A 
HETATM   11 CL   LIG     1       0.239  -0.054  -2.013  1.00  0.00    -0.080 Cl
HETATM   12  C   LIG     1       2.689  -0.771  -1.132  1.00  0.00     0.165 A 
HETATM   13  N   LIG     1       3.625  -1.398  -0.499  1.00  0.00    -0.182 NA
HETATM   14  N   LIG     1       3.209  -2.410   0.302  1.00  0.00    -0.242 N 
HETATM   15  C   LIG     1       1.910  -2.802   0.484  1.00  0.00     0.289 A 
HETATM   16  H   LIG     1       3.936  -2.910   0.803  1.00  0.00     0.192 HD
HETATM   17  O   LIG     1       1.602  -3.733   1.231  1.00  0.00    -0.264 OA
ENDBRANCH   7   9
ENDBRANCH   6   7
ENDBRANCH   5   6
ENDBRANCH   4   5
ENDBRANCH   1   4
BRANCH   1  18
HETATM   18  C   LIG     1      -6.686  -2.654  -0.083  1.00  0.00     0.239 C 
BRANCH  18  19
HETATM   19  C   LIG     1      -7.740  -3.017   0.967  1.00  0.00     0.066 C 
BRANCH  19  20
HETATM   20  C   LIG     1      -9.039  -2.304   0.684  1.00  0.00    -0.054 A 
HETATM   21  C   LIG     1      -9.283  -1.038   1.226  1.00  0.00     0.010 A 
HETATM   22  C   LIG     1     -10.466  -0.358   0.930  1.00  0.00     0.040 A 
HETATM   23  C   LIG     1     -11.422  -0.933   0.087  1.00  0.00     0.101 A 
HETATM   24  C   LIG     1     -11.189  -2.211  -0.460  1.00  0.00     0.102 A 
HETATM   25  C   LIG     1      -9.998  -2.884  -0.160  1.00  0.00     0.046 A 
BRANCH  23  26
HETATM   26  O   LIG     1     -12.606  -0.334  -0.265  1.00  0.00    -0.353 OA
HETATM   27  C   LIG     1     -12.894   0.942   0.290  1.00  0.00     0.210 C 
ENDBRANCH  23  26
BRANCH  24  28
HETATM   28  O   LIG     1     -12.175  -2.706  -1.278  1.00  0.00    -0.353 OA
HETATM   29  C   LIG     1     -12.025  -4.029  -1.774  1.00  0.00     0.210 C 
ENDBRANCH  24  28
ENDBRANCH  19  20
ENDBRANCH  18  19
ENDBRANCH   1  18
TORSDOF 10
