REMARK  4 active torsions:
REMARK  status: ('A' for Active; 'I' for Inactive)
REMARK    1  A    between atoms: N_6  and  C_14 
REMARK    2  A    between atoms: C_8  and  C_11 
REMARK    3  A    between atoms: C_17  and  O_18 
REMARK    4  A    between atoms: C_20  and  N_21 
ROOT
HETATM    1  F   LIG     1       0.031   0.505   0.502  1.00  0.00    -0.204 F 
HETATM    2  C   LIG     1       1.166   1.146   0.185  1.00  0.00     0.146 C 
HETATM    3  C   LIG     1       2.338   0.397   0.227  1.00  0.00     0.062 C 
HETATM    4  C   LIG     1       3.571   1.001  -0.037  1.00  0.00     0.044 C 
HETATM    5  C   LIG     1       3.672   2.362  -0.354  1.00  0.00     0.084 C 
HETATM    6  N   LIG     1       4.936   2.960  -0.539  1.00  0.00    -0.351 N 
HETATM    7  C   LIG     1       6.027   2.267  -0.616  1.00  0.00     0.088 C 
HETATM    8  C   LIG     1       6.081   0.821  -0.271  1.00  0.00     0.200 C 
HETATM    9  C   LIG     1       4.775   0.150  -0.019  1.00  0.00     0.181 C 
HETATM   10  O   LIG     1       4.669  -1.057   0.167  1.00  0.00    -0.291 OA
HETATM   11  C   LIG     1       2.426   3.059  -0.501  1.00  0.00     0.125 C 
HETATM   12  C   LIG     1       1.150   2.507  -0.164  1.00  0.00     0.105 C 
ENDROOT
BRANCH  12  13
HETATM   13  N   LIG     1      -0.032   3.237  -0.173  1.00  0.00    -0.374 N 
HETATM   14  C   LIG     1      -0.113   4.688  -0.023  1.00  0.00     0.156 C 
HETATM   15  C   LIG     1      -1.601   4.959   0.247  1.00  0.00     0.209 C 
HETATM   16  N   LIG     1      -1.939   4.865   1.707  1.00  0.00    -0.069 N 
HETATM   17  C   LIG     1      -2.315   3.823  -0.489  1.00  0.00     0.036 C 
HETATM   18  C   LIG     1      -3.388   5.091   2.018  1.00  0.00     0.233 C 
HETATM   19  H   LIG     1      -1.658   3.934   2.053  1.00  0.00     0.277 HD
HETATM   20  H   LIG     1      -1.368   5.527   2.251  1.00  0.00     0.277 HD
HETATM   21  C   LIG     1      -4.279   4.710   0.837  1.00  0.00     0.028 C 
HETATM   22  C   LIG     1      -3.724   3.530   0.044  1.00  0.00     0.010 C 
HETATM   23  C   LIG     1      -1.356   2.628  -0.333  1.00  0.00     0.130 C 
ENDBRANCH  12  13
BRANCH  11  24
HETATM   24  O   LIG     1       2.445   4.317  -1.085  1.00  0.00    -0.351 OA
HETATM   25  C   LIG     1       2.220   4.202  -2.499  1.00  0.00     0.210 C 
ENDBRANCH  11  24
BRANCH   6  26
HETATM   26  C   LIG     1       5.091   4.398  -0.636  1.00  0.00     0.089 A 
HETATM   27  C   LIG     1       6.138   5.088   0.225  1.00  0.00     0.028 A 
HETATM   28  C   LIG     1       4.693   5.270   0.540  1.00  0.00     0.028 A 
ENDBRANCH   6  26
BRANCH   8  29
HETATM   29  C   LIG     1       6.920   0.745   0.998  1.00  0.00     0.190 C 
HETATM   30  O   LIG     1       8.041   0.185   0.880  1.00  0.00    -0.647 OA
HETATM   31  O   LIG     1       6.398   1.350   1.980  1.00  0.00    -0.647 OA
ENDBRANCH   8  29
TORSDOF 4
