REMARK  7 active torsions:
REMARK  status: ('A' for Active; 'I' for Inactive)
REMARK    1  A    between atoms: C_5  and  C_8 
REMARK    2  A    between atoms: C_8  and  C_9 
REMARK    3  A    between atoms: C_8  and  C_28 
REMARK    4  A    between atoms: C_9  and  C_10 
REMARK    5  A    between atoms: C_10  and  C_11 
REMARK    6  A    between atoms: C_11  and  N_12 
REMARK    7  A    between atoms: C_15  and  N_16 
ROOT
HETATM    1  C   LIG     1      -8.895   2.586  -0.550  1.00  0.00     0.235 C 
ENDROOT
BRANCH   1   2
HETATM    2  C   LIG     1      -7.753   3.453  -0.023  1.00  0.00     0.029 C 
BRANCH   2   3
HETATM    3  C   LIG     1      -6.443   2.651   0.005  1.00  0.00     0.016 C 
BRANCH   3   4
HETATM    4  C   LIG     1      -5.267   3.439   0.639  1.00  0.00     0.051 C 
BRANCH   4   5
HETATM    5  C   LIG     1      -4.058   2.564   0.959  1.00  0.00    -0.049 A 
HETATM    6  C   LIG     1      -3.655   1.499   0.135  1.00  0.00     0.011 A 
HETATM    7  C   LIG     1      -2.539   0.728   0.463  1.00  0.00     0.043 A 
HETATM    8  C   LIG     1      -1.815   1.022   1.610  1.00  0.00     0.116 A 
HETATM    9  F   LIG     1      -0.745   0.279   1.923  1.00  0.00    -0.206 F 
HETATM   10  C   LIG     1      -2.180   2.076   2.436  1.00  0.00     0.043 A 
HETATM   11  C   LIG     1      -3.296   2.847   2.110  1.00  0.00     0.011 A 
ENDBRANCH   4   5
BRANCH   4  12
HETATM   12  C   LIG     1      -4.873   4.672  -0.167  1.00  0.00    -0.049 A 
HETATM   13  C   LIG     1      -4.865   5.935   0.453  1.00  0.00     0.011 A 
HETATM   14  C   LIG     1      -4.506   7.077  -0.264  1.00  0.00     0.043 A 
HETATM   15  C   LIG     1      -4.151   6.961  -1.602  1.00  0.00     0.116 A 
HETATM   16  F   LIG     1      -3.816   8.058  -2.292  1.00  0.00    -0.206 F 
HETATM   17  C   LIG     1      -4.140   5.725  -2.235  1.00  0.00     0.043 A 
HETATM   18  C   LIG     1      -4.496   4.581  -1.519  1.00  0.00     0.011 A 
ENDBRANCH   4  12
ENDBRANCH   3   4
ENDBRANCH   2   3
ENDBRANCH   1   2
BRANCH   1  19
HETATM   19  N   LIG     1     -10.176   3.399  -0.705  1.00  0.00    -0.071 N 
HETATM   20  C   LIG     1     -10.821   3.744   0.613  1.00  0.00     0.237 C 
HETATM   21  C   LIG     1     -11.944   4.755   0.385  1.00  0.00     0.053 C 
HETATM   22  C   LIG     1     -12.717   4.504  -0.913  1.00  0.00     0.098 C 
HETATM   23  C   LIG     1     -12.583   3.069  -1.406  1.00  0.00     0.053 C 
HETATM   24  C   LIG     1     -11.123   2.698  -1.665  1.00  0.00     0.237 C 
HETATM   25  H   LIG     1      -9.880   4.280  -1.153  1.00  0.00     0.279 HD
BRANCH  22  26
HETATM   26  N   LIG     1     -14.143   4.878  -0.767  1.00  0.00    -0.291 N 
HETATM   27  C   LIG     1     -15.099   4.450  -0.022  1.00  0.00     0.068 A 
HETATM   28  C   LIG     1     -15.149   3.414   1.003  1.00  0.00     0.032 A 
HETATM   29  C   LIG     1     -16.322   5.235  -0.368  1.00  0.00     0.089 A 
HETATM   30  C   LIG     1     -16.336   3.223   1.593  1.00  0.00     0.002 A 
HETATM   31  C   LIG     1     -17.531   3.978   1.265  1.00  0.00     0.002 A 
HETATM   32  C   LIG     1     -17.567   4.944   0.339  1.00  0.00     0.034 A 
HETATM   33  N   LIG     1     -16.102   6.110  -1.294  1.00  0.00    -0.192 NA
HETATM   34  C   LIG     1     -14.783   6.015  -1.655  1.00  0.00     0.349 A 
HETATM   35  O   LIG     1     -14.097   6.599  -2.469  1.00  0.00    -0.244 OA
ENDBRANCH  22  26
ENDBRANCH   1  19
TORSDOF 7
