REMARK  11 active torsions:
REMARK  status: ('A' for Active; 'I' for Inactive)
REMARK    1  A    between atoms: O_1  and  C_2 
REMARK    2  A    between atoms: C_2  and  C_3 
REMARK    3  A    between atoms: C_2  and  C_26 
REMARK    4  A    between atoms: C_3  and  C_4 
REMARK    5  A    between atoms: C_4  and  C_5 
REMARK    6  A    between atoms: C_5  and  N_6 
REMARK    7  A    between atoms: C_9  and  C_12 
REMARK    8  A    between atoms: C_12  and  O_13 
REMARK    9  A    between atoms: C_12  and  C_14 
REMARK   10  A    between atoms: C_12  and  C_20 
REMARK   11  A    between atoms: C_29  and  C_32 
ROOT
HETATM    1  N   LIG     1      -4.007  -4.149   0.070  1.00  0.00    -0.071 N 
HETATM    2  C   LIG     1      -4.530  -5.347  -0.686  1.00  0.00     0.235 C 
HETATM    3  C   LIG     1      -5.837  -5.819  -0.066  1.00  0.00     0.036 C 
HETATM    4  C   LIG     1      -6.914  -4.705  -0.041  1.00  0.00     0.033 C 
HETATM    5  C   LIG     1      -6.309  -3.490   0.702  1.00  0.00     0.036 C 
HETATM    6  C   LIG     1      -5.007  -3.018   0.068  1.00  0.00     0.235 C 
HETATM    7  H   LIG     1      -3.872  -4.448   1.046  1.00  0.00     0.279 HD
ENDROOT
BRANCH   1   8
HETATM    8  C   LIG     1      -2.643  -3.735  -0.453  1.00  0.00     0.235 C 
BRANCH   8   9
HETATM    9  C   LIG     1      -1.919  -2.854   0.560  1.00  0.00     0.030 C 
BRANCH   9  10
HETATM   10  C   LIG     1      -0.494  -2.537   0.093  1.00  0.00     0.038 C 
BRANCH  10  11
HETATM   11  C   LIG     1       0.229  -1.601   1.070  1.00  0.00     0.151 C 
BRANCH  11  12
HETATM   12  O   LIG     1      -0.480  -0.363   1.135  1.00  0.00    -0.391 OA
HETATM   13  H   LIG     1       0.148   0.315   1.441  1.00  0.00     0.210 HD
ENDBRANCH  11  12
BRANCH  11  14
HETATM   14  C   LIG     1       1.667  -1.359   0.674  1.00  0.00    -0.030 A 
HETATM   15  C   LIG     1       1.992  -0.609  -0.462  1.00  0.00     0.010 A 
HETATM   16  C   LIG     1       3.328  -0.389  -0.821  1.00  0.00     0.008 A 
HETATM   17  C   LIG     1       4.385  -0.909  -0.058  1.00  0.00    -0.051 A 
HETATM   18  C   LIG     1       4.043  -1.670   1.076  1.00  0.00     0.008 A 
HETATM   19  C   LIG     1       2.710  -1.892   1.438  1.00  0.00     0.010 A 
BRANCH  17  20
HETATM   20  C   LIG     1       5.864  -0.679  -0.416  1.00  0.00    -0.024 C 
HETATM   21  C   LIG     1       6.552  -2.036  -0.680  1.00  0.00     0.019 C 
HETATM   22  C   LIG     1       6.578   0.034   0.754  1.00  0.00     0.019 C 
HETATM   23  C   LIG     1       6.073   0.193  -1.675  1.00  0.00     0.019 C 
ENDBRANCH  17  20
ENDBRANCH  11  14
ENDBRANCH  10  11
ENDBRANCH   9  10
ENDBRANCH   8   9
ENDBRANCH   1   8
BRANCH   4  24
HETATM   24  C   LIG     1      -8.271  -5.196   0.606  1.00  0.00     0.116 C 
BRANCH  24  25
HETATM   25  O   LIG     1      -7.928  -5.506   1.974  1.00  0.00    -0.380 OA
HETATM   26  H   LIG     1      -8.112  -4.719   2.514  1.00  0.00     0.211 HD
ENDBRANCH  24  25
BRANCH  24  27
HETATM   27  C   LIG     1      -9.410  -4.156   0.628  1.00  0.00    -0.019 A 
HETATM   28  C   LIG     1      -9.496  -3.093  -0.289  1.00  0.00     0.010 A 
HETATM   29  C   LIG     1     -10.555  -2.181  -0.241  1.00  0.00     0.001 A 
HETATM   30  C   LIG     1     -11.560  -2.322   0.711  1.00  0.00     0.000 A 
HETATM   31  C   LIG     1     -11.517  -3.384   1.608  1.00  0.00     0.001 A 
HETATM   32  C   LIG     1     -10.460  -4.296   1.561  1.00  0.00     0.010 A 
ENDBRANCH  24  27
BRANCH  24  33
HETATM   33  C   LIG     1      -8.772  -6.477  -0.088  1.00  0.00    -0.019 A 
HETATM   34  C   LIG     1      -9.122  -6.466  -1.453  1.00  0.00     0.010 A 
HETATM   35  C   LIG     1      -9.570  -7.625  -2.091  1.00  0.00     0.001 A 
HETATM   36  C   LIG     1      -9.678  -8.817  -1.380  1.00  0.00     0.000 A 
HETATM   37  C   LIG     1      -9.345  -8.850  -0.029  1.00  0.00     0.001 A 
HETATM   38  C   LIG     1      -8.898  -7.692   0.611  1.00  0.00     0.010 A 
ENDBRANCH  24  33
ENDBRANCH   4  24
TORSDOF 11
