REMARK  3 active torsions:
REMARK  status: ('A' for Active; 'I' for Inactive)
REMARK    1  A    between atoms: O_1  and  C_5 
REMARK    2  A    between atoms: O_1  and  C_12 
REMARK    3  A    between atoms: C_6  and  C_11 
ROOT
HETATM    1  C   LIG     1      -0.086   0.609   0.440  1.00  0.00     0.096 A 
HETATM    2  C   LIG     1      -0.793  -0.552   0.124  1.00  0.00     0.074 A 
HETATM    3  C   LIG     1      -0.729   1.846   0.413  1.00  0.00     0.038 A 
HETATM    4  C   LIG     1      -2.143  -0.474  -0.218  1.00  0.00     0.021 A 
HETATM    5  C   LIG     1      -2.079   1.924   0.071  1.00  0.00     0.003 A 
HETATM    6  C   LIG     1      -2.786   0.764  -0.245  1.00  0.00     0.001 A 
ENDROOT
BRANCH   1   7
HETATM    7  O   LIG     1       1.233   0.554   0.779  1.00  0.00    -0.278 OA
BRANCH   7   8
HETATM    8  C   LIG     1       2.109   0.672  -0.311  1.00  0.00     0.260 C 
HETATM    9  O   LIG     1       1.781   0.810  -1.482  1.00  0.00    -0.265 OA
HETATM   10  C   LIG     1       3.530   0.600   0.164  1.00  0.00     0.126 C 
ENDBRANCH   7   8
ENDBRANCH   1   7
BRANCH   2  11
HETATM   11  C   LIG     1      -0.141  -1.854   0.148  1.00  0.00     0.212 C 
HETATM   12  O   LIG     1      -0.695  -2.715  -0.750  1.00  0.00    -0.644 OA
HETATM   13  O   LIG     1       0.796  -2.184   0.868  1.00  0.00    -0.644 OA
ENDBRANCH   2  11
TORSDOF 3
