REMARK  7 active torsions:
REMARK  status: ('A' for Active; 'I' for Inactive)
REMARK    1  A    between atoms: S1_1  and  N2_6 
REMARK    2  A    between atoms: O1_2  and  C1_7 
REMARK    3  A    between atoms: N1_5  and  C3_9 
REMARK    4  A    between atoms: N1_5  and  C2_8 
REMARK    5  A    between atoms: N2_6  and  C9_15 
REMARK    6  A    between atoms: C1_7  and  C2_8 
REMARK    7  A    between atoms: C1_7  and  C4_10 
ROOT
ATOM      1  C4  UNK     0      -0.423  -1.116   0.126  1.00  0.00    -0.028 A 
ATOM      2  C5  UNK     0       0.386  -1.165  -1.019  1.00  0.00     0.012 A 
ATOM      3  C6  UNK     0       0.181  -0.861   1.366  1.00  0.00     0.012 A 
ATOM      4  C9  UNK     0       2.349  -0.695   0.311  1.00  0.00     0.042 A 
ATOM      5  C10 UNK     0       1.763  -0.956  -0.927  1.00  0.00     0.031 A 
ATOM      6  C11 UNK     0       1.560  -0.654   1.460  1.00  0.00     0.031 A 
ENDROOT
BRANCH   1   7
ATOM      7  C1  UNK     0      -1.922  -1.271  -0.013  1.00  0.00     0.179 C 
BRANCH   7   8
ATOM      8  C2  UNK     0      -2.583   0.068  -0.403  1.00  0.00     0.306 C 
BRANCH   8   9
ATOM      9  N1  UNK     0      -4.047  -0.091  -0.330  1.00  0.00     0.090 N 
ATOM     10  H5  UNK     0      -4.342  -0.757  -1.050  1.00  0.00     0.316 HD
BRANCH   9  11
ATOM     11  C3  UNK     0      -4.758   1.179  -0.555  1.00  0.00     0.212 C 
ATOM     12  C8  UNK     0      -6.214   0.869  -0.912  1.00  0.00     0.042 C 
ATOM     13  C7  UNK     0      -4.717   2.071   0.687  1.00  0.00     0.042 C 
ENDBRANCH   9  11
ENDBRANCH   8   9
ENDBRANCH   7   8
BRANCH   7  14
ATOM     14  O1  UNK     0      -2.522  -1.724   1.208  1.00  0.00    -0.389 OA
ATOM     15  H16 UNK     0      -3.441  -1.382   1.153  1.00  0.00     0.210 HD
ENDBRANCH   7  14
ENDBRANCH   1   7
BRANCH   4  16
ATOM     16  N2  UNK     0       3.750  -0.440   0.415  1.00  0.00    -0.285 N 
ATOM     17  H17 UNK     0       4.190  -0.679   1.307  1.00  0.00     0.178 HD
BRANCH  16  18
ATOM     18  S1  UNK     0       4.386   0.956  -0.308  1.00  0.00     0.227 S 
ATOM     19  O3  UNK     0       3.875   1.106  -1.654  1.00  0.00    -0.206 OA
ATOM     20  O2  UNK     0       5.812   0.949  -0.045  1.00  0.00    -0.206 OA
ATOM     21  C12 UNK     0       3.675   2.236   0.705  1.00  0.00     0.186 C 
ENDBRANCH  16  18
ENDBRANCH   4  16
TORSDOF 7
