REMARK  14 active torsions:
REMARK  status: ('A' for Active; 'I' for Inactive)
REMARK    1  A    between atoms: N_2  and  C_4 
REMARK    2  A    between atoms: C_7  and  C_10 
REMARK       I    between atoms: C_10  and  N_12 
REMARK    3  A    between atoms: N_12  and  C_13 
REMARK    4  A    between atoms: N_12  and  C_30 
REMARK    5  A    between atoms: C_13  and  C_14 
REMARK    6  A    between atoms: C_14  and  C_15 
REMARK    7  A    between atoms: C_15  and  N_16 
REMARK    8  A    between atoms: N_16  and  C_18 
REMARK    9  A    between atoms: C_18  and  C_19 
REMARK   10  A    between atoms: C_19  and  C_20 
REMARK   11  A    between atoms: C_23  and  O_24 
REMARK   12  A    between atoms: C_26  and  O_27 
REMARK   13  A    between atoms: C_33  and  O_34 
REMARK   14  A    between atoms: C_36  and  O_37 
ROOT
HETATM    1  C   LIG     1      -4.274   5.835  -0.796  1.00  0.00     0.258 C 
HETATM    2  O   LIG     1      -5.177   6.045  -1.601  1.00  0.00    -0.267 OA
HETATM    3  N   LIG     1      -3.688   6.802   0.044  1.00  0.00    -0.314 N 
ENDROOT
BRANCH   3   4
HETATM    4  C   LIG     1      -2.232   6.775   0.286  1.00  0.00     0.134 C 
BRANCH   4   5
HETATM    5  C   LIG     1      -1.485   7.673  -0.716  1.00  0.00     0.048 C 
BRANCH   5   6
HETATM    6  C   LIG     1       0.029   7.572  -0.537  1.00  0.00     0.236 C 
BRANCH   6   7
HETATM    7  N   LIG     1       0.755   8.653  -1.333  1.00  0.00    -0.075 N 
HETATM    8  C   LIG     1       0.524   8.543  -2.822  1.00  0.00     0.269 C 
HETATM    9  H   LIG     1       0.358   9.555  -1.033  1.00  0.00     0.279 HD
BRANCH   7  10
HETATM   10  C   LIG     1       2.241   8.674  -0.983  1.00  0.00     0.239 C 
BRANCH  10  11
HETATM   11  C   LIG     1       2.874  10.027  -1.317  1.00  0.00     0.066 C 
BRANCH  11  12
HETATM   12  C   LIG     1       4.331  10.045  -0.924  1.00  0.00    -0.054 A 
HETATM   13  C   LIG     1       5.299   9.532  -1.794  1.00  0.00     0.010 A 
HETATM   14  C   LIG     1       6.644   9.507  -1.422  1.00  0.00     0.040 A 
HETATM   15  C   LIG     1       7.043   9.995  -0.174  1.00  0.00     0.101 A 
HETATM   16  C   LIG     1       6.077  10.520   0.708  1.00  0.00     0.102 A 
HETATM   17  C   LIG     1       4.728  10.537   0.329  1.00  0.00     0.046 A 
BRANCH  15  18
HETATM   18  O   LIG     1       8.339  10.003   0.277  1.00  0.00    -0.353 OA
HETATM   19  C   LIG     1       9.349   9.525  -0.601  1.00  0.00     0.210 C 
ENDBRANCH  15  18
BRANCH  16  20
HETATM   20  O   LIG     1       6.550  10.977   1.915  1.00  0.00    -0.353 OA
HETATM   21  C   LIG     1       5.638  11.645   2.775  1.00  0.00     0.210 C 
ENDBRANCH  16  20
ENDBRANCH  11  12
ENDBRANCH  10  11
ENDBRANCH   7  10
ENDBRANCH   6   7
ENDBRANCH   5   6
ENDBRANCH   4   5
ENDBRANCH   3   4
BRANCH   3  22
HETATM   22  C   LIG     1      -4.491   7.864   0.618  1.00  0.00     0.040 A 
HETATM   23  C   LIG     1      -3.919   8.931   1.325  1.00  0.00     0.032 A 
HETATM   24  C   LIG     1      -4.702   9.956   1.881  1.00  0.00     0.042 A 
HETATM   25  C   LIG     1      -6.094   9.942   1.768  1.00  0.00     0.101 A 
HETATM   26  C   LIG     1      -6.689   8.856   1.116  1.00  0.00     0.103 A 
HETATM   27  C   LIG     1      -5.892   7.851   0.536  1.00  0.00     0.069 A 
BRANCH  25  28
HETATM   28  O   LIG     1      -6.914  10.930   2.241  1.00  0.00    -0.353 OA
HETATM   29  C   LIG     1      -6.305  12.090   2.793  1.00  0.00     0.210 C 
ENDBRANCH  25  28
BRANCH  26  30
HETATM   30  O   LIG     1      -8.037   8.682   0.921  1.00  0.00    -0.353 OA
HETATM   31  C   LIG     1      -8.853   8.947   2.059  1.00  0.00     0.210 C 
ENDBRANCH  26  30
ENDBRANCH   3  22
BRANCH   1  32
HETATM   32  C   LIG     1      -3.784   4.432  -0.710  1.00  0.00     0.032 A 
HETATM   33  C   LIG     1      -3.571   3.710  -1.891  1.00  0.00     0.019 A 
HETATM   34  C   LIG     1      -3.176   2.372  -1.828  1.00  0.00     0.037 A 
HETATM   35  C   LIG     1      -3.012   1.758  -0.578  1.00  0.00     0.102 A 
HETATM   36  C   LIG     1      -3.245   2.470   0.607  1.00  0.00     0.037 A 
HETATM   37  C   LIG     1      -3.639   3.809   0.538  1.00  0.00     0.019 A 
BRANCH  35  38
HETATM   38  N   LIG     1      -2.601   0.353  -0.510  1.00  0.00    -0.116 N 
HETATM   39  O   LIG     1      -2.374  -0.233  -1.578  1.00  0.00    -0.532 OA
HETATM   40  O   LIG     1      -2.503  -0.166   0.611  1.00  0.00    -0.532 OA
ENDBRANCH  35  38
ENDBRANCH   1  32
TORSDOF 14
