REMARK  4 active torsions:
REMARK  status: ('A' for Active; 'I' for Inactive)
REMARK    1  A    between atoms: C_6  and  C_7 
REMARK    2  A    between atoms: C_6  and  C_12 
REMARK    3  A    between atoms: C_12  and  C_14 
REMARK    4  A    between atoms: C_14  and  C_15 
ROOT
HETATM    1  O   LIG     1       0.892   1.115   0.041  1.00  0.00    -0.247 OA
HETATM    2  C   LIG     1       2.018   0.627   0.002  1.00  0.00     0.329 C 
HETATM    3  N   LIG     1       2.458  -0.247   0.952  1.00  0.00    -0.278 N 
HETATM    4  C   LIG     1       3.693  -0.832   1.027  1.00  0.00     0.244 C 
HETATM    5  O   LIG     1       3.943  -1.626   1.934  1.00  0.00    -0.272 OA
HETATM    6  C   LIG     1       4.724  -0.435  -0.030  1.00  0.00     0.125 C 
HETATM    7  C   LIG     1       4.171   0.445  -1.147  1.00  0.00     0.244 C 
HETATM    8  O   LIG     1       4.820   0.743  -2.149  1.00  0.00    -0.272 OA
HETATM    9  N   LIG     1       2.895   0.917  -1.001  1.00  0.00    -0.278 N 
HETATM   10  H   LIG     1       1.799  -0.491   1.679  1.00  0.00     0.173 HD
HETATM   11  H   LIG     1       2.561   1.541  -1.723  1.00  0.00     0.173 HD
ENDROOT
BRANCH   6  12
HETATM   12  C   LIG     1       5.248  -1.753  -0.674  1.00  0.00     0.025 C 
HETATM   13  C   LIG     1       4.163  -2.630  -1.301  1.00  0.00     0.007 C 
ENDBRANCH   6  12
BRANCH   6  14
HETATM   14  C   LIG     1       5.876   0.337   0.738  1.00  0.00     0.009 C 
HETATM   15  C   LIG     1       5.394   1.700   1.274  1.00  0.00     0.011 C 
BRANCH  14  16
HETATM   16  C   LIG     1       7.191   0.496  -0.070  1.00  0.00     0.005 C 
BRANCH  16  17
HETATM   17  C   LIG     1       8.334   1.145   0.722  1.00  0.00    -0.004 C 
HETATM   18  C   LIG     1       9.637   1.119  -0.063  1.00  0.00     0.005 C 
ENDBRANCH  16  17
ENDBRANCH  14  16
ENDBRANCH   6  14
TORSDOF 4
