REMARK  8 active torsions:
REMARK  status: ('A' for Active; 'I' for Inactive)
REMARK    1  A    between atoms: O_1  and  C_7 
REMARK    2  A    between atoms: O_2  and  C_10 
REMARK    3  A    between atoms: O_3  and  C_12 
REMARK    4  A    between atoms: N_5  and  C_9 
REMARK       I    between atoms: N_5  and  C_15 
REMARK    5  A    between atoms: N_6  and  C_16 
REMARK    6  A    between atoms: C_7  and  C_8 
REMARK    7  A    between atoms: C_7  and  C_9 
REMARK    8  A    between atoms: C_15  and  C_16 
ROOT
HETATM    1  C   LIG     1       0.470   0.028   0.690  1.00  0.00     0.171 C 
ENDROOT
BRANCH   1   2
HETATM    2  O   LIG     1       0.500   0.627   1.985  1.00  0.00    -0.389 OA
HETATM    3  H   LIG     1       1.434   0.750   2.228  1.00  0.00     0.210 HD
ENDBRANCH   1   2
BRANCH   1   4
HETATM    4  C   LIG     1      -0.973  -0.153   0.279  1.00  0.00     0.008 A 
HETATM    5  C   LIG     1      -1.484  -1.426   0.080  1.00  0.00     0.077 A 
HETATM    6  C   LIG     1      -2.818  -1.575  -0.299  1.00  0.00     0.040 A 
HETATM    7  C   LIG     1      -3.624  -0.450  -0.475  1.00  0.00     0.039 A 
HETATM    8  C   LIG     1      -3.095   0.825  -0.271  1.00  0.00     0.069 A 
HETATM    9  C   LIG     1      -1.761   0.974   0.108  1.00  0.00     0.049 A 
BRANCH   5  10
HETATM   10  O   LIG     1      -0.711  -2.536   0.246  1.00  0.00    -0.355 OA
HETATM   11  C   LIG     1      -1.308  -3.797   0.024  1.00  0.00     0.210 C 
ENDBRANCH   5  10
BRANCH   8  12
HETATM   12  O   LIG     1      -3.882   1.922  -0.441  1.00  0.00    -0.356 OA
HETATM   13  C   LIG     1      -3.303   3.194  -0.223  1.00  0.00     0.210 C 
ENDBRANCH   8  12
ENDBRANCH   1   4
BRANCH   1  14
HETATM   14  C   LIG     1       1.235   0.904  -0.302  1.00  0.00     0.159 C 
BRANCH  14  15
HETATM   15  N   LIG     1       2.609   1.088   0.108  1.00  0.00    -0.357 N 
HETATM   16  C   LIG     1       3.638   0.239  -0.275  1.00  0.00     0.243 C 
HETATM   17  O   LIG     1       3.507  -0.749  -0.994  1.00  0.00    -0.272 OA
HETATM   18  H   LIG     1       2.814   1.871   0.721  1.00  0.00     0.162 HD
BRANCH  16  19
HETATM   19  C   LIG     1       4.965   0.652   0.327  1.00  0.00     0.332 C 
BRANCH  19  20
HETATM   20  N   LIG     1       6.035   0.234  -0.567  1.00  0.00    -0.071 N 
HETATM   21  H   LIG     1       5.909   0.662  -1.484  1.00  0.00     0.274 HD
HETATM   22  H   LIG     1       5.994  -0.775  -0.710  1.00  0.00     0.274 HD
HETATM   23  H   LIG     1       6.913   0.510  -0.151  1.00  0.00     0.274 HD
ENDBRANCH  19  20
ENDBRANCH  16  19
ENDBRANCH  14  15
ENDBRANCH   1  14
TORSDOF 8
