REMARK  8 active torsions:
REMARK  status: ('A' for Active; 'I' for Inactive)
REMARK    1  A    between atoms: S_2  and  N_9 
REMARK    2  A    between atoms: S_2  and  C_18 
REMARK    3  A    between atoms: O_7  and  C_28 
REMARK    4  A    between atoms: N_8  and  C_11 
REMARK       I    between atoms: N_8  and  C_17 
REMARK       I    between atoms: N_9  and  C_17 
REMARK    5  A    between atoms: N_10  and  C_25 
REMARK       I    between atoms: N_10  and  C_26 
REMARK    6  A    between atoms: C_19  and  C_20 
REMARK    7  A    between atoms: C_20  and  C_25 
REMARK    8  A    between atoms: C_26  and  C_27 
ROOT
HETATM    1  C   LIG     1      -2.606   2.281  -0.057  1.00  0.00     0.081 A 
HETATM    2  C   LIG     1      -0.302   3.719   0.478  1.00  0.00    -0.057 A 
HETATM    3  C   LIG     1      -1.628   2.377  -1.032  1.00  0.00     0.026 A 
HETATM    4  C   LIG     1      -2.459   2.886   1.179  1.00  0.00     0.026 A 
HETATM    5  C   LIG     1      -0.467   3.102  -0.763  1.00  0.00     0.009 A 
HETATM    6  C   LIG     1      -1.297   3.610   1.449  1.00  0.00     0.009 A 
ENDROOT
BRANCH   2   7
HETATM    7  C   LIG     1       0.940   4.494   0.765  1.00  0.00     0.058 C 
BRANCH   7   8
HETATM    8  C   LIG     1       2.062   3.648   1.381  1.00  0.00     0.127 C 
BRANCH   8   9
HETATM    9  N   LIG     1       2.480   2.580   0.514  1.00  0.00    -0.356 N 
HETATM   10  C   LIG     1       2.399   1.242   0.880  1.00  0.00     0.254 C 
HETATM   11  O   LIG     1       1.973   0.838   1.959  1.00  0.00    -0.268 OA
HETATM   12  H   LIG     1       2.927   2.850  -0.356  1.00  0.00     0.162 HD
BRANCH  10  13
HETATM   13  C   LIG     1       2.896   0.260  -0.118  1.00  0.00     0.066 A 
HETATM   14  C   LIG     1       3.437  -0.936   0.307  1.00  0.00     0.084 A 
HETATM   15  C   LIG     1       3.898  -1.845  -0.645  1.00  0.00     0.039 A 
HETATM   16  C   LIG     1       3.808  -1.538  -2.003  1.00  0.00     0.026 A 
HETATM   17  C   LIG     1       3.258  -0.322  -2.408  1.00  0.00     0.035 A 
HETATM   18 CL   LIG     1       3.147   0.056  -4.084  1.00  0.00    -0.084 Cl
HETATM   19  C   LIG     1       2.796   0.586  -1.456  1.00  0.00     0.043 A 
BRANCH  14  20
HETATM   20  O   LIG     1       3.534  -1.255   1.629  1.00  0.00    -0.355 OA
HETATM   21  C   LIG     1       4.731  -0.870   2.302  1.00  0.00     0.210 C 
ENDBRANCH  14  20
ENDBRANCH  10  13
ENDBRANCH   8   9
ENDBRANCH   7   8
ENDBRANCH   2   7
BRANCH   1  22
HETATM   22  S   LIG     1      -4.078   1.363  -0.398  1.00  0.00     0.287 S 
HETATM   23  O   LIG     1      -4.274   1.344  -1.835  1.00  0.00    -0.198 OA
HETATM   24  O   LIG     1      -5.109   1.883   0.478  1.00  0.00    -0.198 OA
BRANCH  22  25
HETATM   25  N   LIG     1      -3.621  -0.196   0.132  1.00  0.00    -0.102 NA
HETATM   26  C   LIG     1      -2.873  -1.146  -0.634  1.00  0.00     0.353 C 
HETATM   27  O   LIG     1      -2.478  -0.917  -1.773  1.00  0.00    -0.244 OA
HETATM   28  N   LIG     1      -2.652  -2.324   0.053  1.00  0.00    -0.336 N 
HETATM   29  H   LIG     1      -2.982  -2.388   1.010  1.00  0.00     0.164 HD
BRANCH  28  30
HETATM   30  C   LIG     1      -1.916  -3.435  -0.509  1.00  0.00     0.086 C 
HETATM   31  C   LIG     1      -2.450  -4.772   0.016  1.00  0.00     0.025 C 
HETATM   32  C   LIG     1      -2.090  -5.010   1.482  1.00  0.00     0.002 C 
HETATM   33  C   LIG     1      -0.589  -4.875   1.723  1.00  0.00     0.000 C 
HETATM   34  C   LIG     1      -0.057  -3.534   1.227  1.00  0.00     0.002 C 
HETATM   35  C   LIG     1      -0.414  -3.293  -0.240  1.00  0.00     0.025 C 
ENDBRANCH  28  30
ENDBRANCH  22  25
ENDBRANCH   1  22
TORSDOF 8
