REMARK  4 active torsions:
REMARK  status: ('A' for Active; 'I' for Inactive)
REMARK    1  A    between atoms: C_5  and  C_8 
REMARK    2  A    between atoms: C_8  and  N_9 
REMARK    3  A    between atoms: C_17  and  N_18 
REMARK    4  A    between atoms: N_18  and  C_19 
ROOT
HETATM    1  N   LIG     1      -6.451   1.897   0.924  1.00  0.00    -0.175 N 
HETATM    2  C   LIG     1      -5.869   3.143   0.804  1.00  0.00     0.081 A 
HETATM    3  C   LIG     1      -4.613   3.654   1.151  1.00  0.00     0.032 A 
HETATM    4  C   LIG     1      -4.373   5.005   0.870  1.00  0.00     0.002 A 
HETATM    5  C   LIG     1      -5.346   5.805   0.270  1.00  0.00     0.002 A 
HETATM    6  C   LIG     1      -6.596   5.274  -0.070  1.00  0.00     0.034 A 
HETATM    7  C   LIG     1      -6.853   3.921   0.203  1.00  0.00     0.103 A 
HETATM    8  N   LIG     1      -7.984   3.184  -0.036  1.00  0.00    -0.063 NA
HETATM    9  C   LIG     1      -7.726   1.969   0.397  1.00  0.00     0.704 A 
ENDROOT
BRANCH   9  10
HETATM   10  N   LIG     1      -8.555   0.900   0.354  1.00  0.00    -0.219 N 
HETATM   11  H   LIG     1      -8.305  -0.010   0.723  1.00  0.00     0.178 HD
BRANCH  10  12
HETATM   12  C   LIG     1      -9.880   1.038  -0.235  1.00  0.00     0.102 C 
HETATM   13  C   LIG     1     -10.868   1.555   0.816  1.00  0.00     0.053 C 
HETATM   14  C   LIG     1     -12.275   1.630   0.251  1.00  0.00     0.234 C 
HETATM   15  N   LIG     1     -12.664   0.291  -0.286  1.00  0.00    -0.075 N 
HETATM   16  C   LIG     1     -11.746  -0.230  -1.343  1.00  0.00     0.234 C 
HETATM   17  H   LIG     1     -13.617   0.351  -0.671  1.00  0.00     0.277 HD
HETATM   18  H   LIG     1     -12.725  -0.387   0.488  1.00  0.00     0.277 HD
HETATM   19  C   LIG     1     -10.337  -0.319  -0.784  1.00  0.00     0.053 C 
ENDBRANCH  10  12
ENDBRANCH   9  10
BRANCH   1  20
HETATM   20  C   LIG     1      -5.809   0.736   1.523  1.00  0.00     0.186 C 
BRANCH  20  21
HETATM   21  C   LIG     1      -4.839   0.055   0.586  1.00  0.00    -0.039 A 
HETATM   22  C   LIG     1      -5.237  -0.392  -0.686  1.00  0.00     0.012 A 
HETATM   23  C   LIG     1      -4.330  -1.044  -1.525  1.00  0.00     0.043 A 
HETATM   24  C   LIG     1      -3.027  -1.259  -1.092  1.00  0.00     0.116 A 
HETATM   25  F   LIG     1      -2.160  -1.886  -1.897  1.00  0.00    -0.206 F 
HETATM   26  C   LIG     1      -2.614  -0.837   0.165  1.00  0.00     0.043 A 
HETATM   27  C   LIG     1      -3.518  -0.184   1.004  1.00  0.00     0.012 A 
ENDBRANCH  20  21
ENDBRANCH   1  20
TORSDOF 4
