REMARK  3 active torsions:
REMARK  status: ('A' for Active; 'I' for Inactive)
REMARK    1  A    between atoms: C_7  and  O_8 
REMARK    2  A    between atoms: O_8  and  C_9 
REMARK    3  A    between atoms: C_9  and  C_11 
ROOT
HETATM    1  O   LIG     1      -0.747  -0.250  -0.465  1.00  0.00    -0.296 OA
HETATM    2  C   LIG     1      -1.934  -0.415  -0.214  1.00  0.00     0.157 C 
HETATM    3  C   LIG     1      -2.484  -0.534   1.196  1.00  0.00     0.314 C 
HETATM    4  N   LIG     1      -4.004  -0.733   1.088  1.00  0.00    -0.056 N 
HETATM    5  C   LIG     1      -4.318  -2.016   0.322  1.00  0.00     0.192 C 
HETATM    6  C   LIG     1      -5.830  -2.223   0.325  1.00  0.00     0.066 C 
HETATM    7  C   LIG     1      -6.600  -1.035  -0.254  1.00  0.00     0.136 C 
HETATM    8  C   LIG     1      -6.163   0.274   0.409  1.00  0.00     0.066 C 
HETATM    9  C   LIG     1      -4.649   0.468   0.403  1.00  0.00     0.192 C 
HETATM   10  C   LIG     1      -4.022   0.603  -1.004  1.00  0.00     0.045 C 
HETATM   11  C   LIG     1      -3.015  -0.525  -1.278  1.00  0.00     0.061 C 
HETATM   12  C   LIG     1      -3.687  -1.894  -1.083  1.00  0.00     0.045 C 
HETATM   13  H   LIG     1      -4.372  -0.813   2.048  1.00  0.00     0.281 HD
ENDROOT
BRANCH   7  14
HETATM   14  O   LIG     1      -8.000  -1.266   0.000  1.00  0.00    -0.312 OA
BRANCH  14  15
HETATM   15  C   LIG     1      -8.875  -0.597  -0.797  1.00  0.00     0.292 C 
HETATM   16  O   LIG     1      -8.568   0.174  -1.692  1.00  0.00    -0.259 OA
BRANCH  15  17
HETATM   17  C   LIG     1     -10.240  -0.933  -0.415  1.00  0.00     0.049 A 
HETATM   18  C   LIG     1     -10.571  -1.893   0.678  1.00  0.00     0.195 A 
HETATM   19  N   LIG     1     -12.052  -1.936   0.739  1.00  0.00    -0.284 NA
HETATM   20  C   LIG     1     -12.412  -1.111  -0.198  1.00  0.00     0.062 A 
HETATM   21  C   LIG     1     -13.800  -0.779  -0.565  1.00  0.00     0.032 A 
HETATM   22  C   LIG     1     -11.342  -0.439  -0.973  1.00  0.00     0.006 A 
HETATM   23  C   LIG     1     -14.017   0.096  -1.558  1.00  0.00     0.002 A 
HETATM   24  C   LIG     1     -12.943   0.737  -2.298  1.00  0.00     0.001 A 
HETATM   25  C   LIG     1     -11.652   0.486  -2.024  1.00  0.00     0.014 A 
ENDBRANCH  15  17
ENDBRANCH  14  15
ENDBRANCH   7  14
TORSDOF 3
