REMARK  13 active torsions:
REMARK  status: ('A' for Active; 'I' for Inactive)
REMARK    1  A    between atoms: O_1  and  C_3 
REMARK    2  A    between atoms: C_6  and  C_11 
REMARK    3  A    between atoms: C_8  and  O_9 
REMARK    4  A    between atoms: C_11  and  C_12 
REMARK    5  A    between atoms: C_12  and  N_13 
REMARK    6  A    between atoms: N_13  and  C_15 
REMARK    7  A    between atoms: C_15  and  C_16 
REMARK    8  A    between atoms: C_16  and  C_17 
REMARK    9  A    between atoms: C_17  and  C_18 
REMARK   10  A    between atoms: C_18  and  C_21 
REMARK   11  A    between atoms: C_18  and  C_31 
REMARK   12  A    between atoms: C_24  and  O_25 
REMARK   13  A    between atoms: C_27  and  O_28 
ROOT
HETATM    1  C   LIG     1      12.649   5.021  -0.001  1.00  0.00     0.079 C 
HETATM    2  C   LIG     1      12.136   4.361   1.241  1.00  0.00     0.074 C 
HETATM    3  N   LIG     1      11.717   3.832   2.185  1.00  0.00    -0.196 NA
ENDROOT
BRANCH   1   4
HETATM    4  C   LIG     1      11.437   5.007  -1.014  1.00  0.00     0.032 C 
BRANCH   4   5
HETATM    5  C   LIG     1      10.936   3.609  -1.454  1.00  0.00     0.030 C 
BRANCH   5   6
HETATM    6  C   LIG     1       9.720   3.120  -0.663  1.00  0.00     0.234 C 
BRANCH   6   7
HETATM    7  N   LIG     1       9.344   1.704  -1.085  1.00  0.00    -0.075 N 
HETATM    8  C   LIG     1      10.268   0.673  -0.475  1.00  0.00     0.269 C 
HETATM    9  H   LIG     1       9.450   1.655  -2.108  1.00  0.00     0.279 HD
BRANCH   7  10
HETATM   10  C   LIG     1       7.881   1.421  -0.764  1.00  0.00     0.239 C 
BRANCH  10  11
HETATM   11  C   LIG     1       7.380   0.156  -1.465  1.00  0.00     0.066 C 
BRANCH  11  12
HETATM   12  C   LIG     1       5.900  -0.026  -1.243  1.00  0.00    -0.054 A 
HETATM   13  C   LIG     1       4.972   0.536  -2.124  1.00  0.00     0.010 A 
HETATM   14  C   LIG     1       3.599   0.409  -1.886  1.00  0.00     0.040 A 
HETATM   15  C   LIG     1       3.124  -0.287  -0.766  1.00  0.00     0.101 A 
HETATM   16  C   LIG     1       4.053  -0.883   0.102  1.00  0.00     0.102 A 
HETATM   17  C   LIG     1       5.428  -0.729  -0.129  1.00  0.00     0.046 A 
BRANCH  15  18
HETATM   18  O   LIG     1       1.798  -0.393  -0.444  1.00  0.00    -0.353 OA
HETATM   19  C   LIG     1       0.844   0.199  -1.317  1.00  0.00     0.210 C 
ENDBRANCH  15  18
BRANCH  16  20
HETATM   20  O   LIG     1       3.766  -1.592   1.243  1.00  0.00    -0.353 OA
HETATM   21  C   LIG     1       2.624  -2.443   1.182  1.00  0.00     0.210 C 
ENDBRANCH  16  20
ENDBRANCH  11  12
ENDBRANCH  10  11
ENDBRANCH   7  10
ENDBRANCH   6   7
ENDBRANCH   5   6
ENDBRANCH   4   5
ENDBRANCH   1   4
BRANCH   1  22
HETATM   22  C   LIG     1      13.873   4.274  -0.582  1.00  0.00    -0.032 A 
HETATM   23  C   LIG     1      14.283   4.463  -1.915  1.00  0.00     0.012 A 
HETATM   24  C   LIG     1      15.371   3.762  -2.451  1.00  0.00     0.040 A 
HETATM   25  C   LIG     1      16.081   2.844  -1.679  1.00  0.00     0.101 A 
HETATM   26  C   LIG     1      15.731   2.689  -0.339  1.00  0.00     0.102 A 
HETATM   27  C   LIG     1      14.633   3.380   0.197  1.00  0.00     0.048 A 
BRANCH  25  28
HETATM   28  O   LIG     1      17.107   2.218  -2.332  1.00  0.00    -0.353 OA
HETATM   29  C   LIG     1      17.320   0.855  -1.980  1.00  0.00     0.210 C 
ENDBRANCH  25  28
BRANCH  26  30
HETATM   30  O   LIG     1      16.407   1.840   0.498  1.00  0.00    -0.353 OA
HETATM   31  C   LIG     1      17.429   2.556   1.196  1.00  0.00     0.210 C 
ENDBRANCH  26  30
ENDBRANCH   1  22
BRANCH   1  32
HETATM   32  C   LIG     1      13.012   6.512   0.401  1.00  0.00     0.004 C 
HETATM   33  C   LIG     1      13.293   7.468  -0.768  1.00  0.00     0.011 C 
HETATM   34  C   LIG     1      14.184   6.611   1.396  1.00  0.00     0.011 C 
ENDBRANCH   1  32
TORSDOF 13
