REMARK  4 active torsions:
REMARK  status: ('A' for Active; 'I' for Inactive)
REMARK    1  A    between atoms: C_9  and  C_10 
REMARK    2  A    between atoms: N_13  and  C_16 
REMARK    3  A    between atoms: C_16  and  C_17 
REMARK    4  A    between atoms: C_17  and  C_18 
ROOT
HETATM    1  C   LIG     1      -6.797   1.510  -0.104  1.00  0.00     0.044 C 
HETATM    2  C   LIG     1      -7.294   1.653  -1.549  1.00  0.00     0.038 C 
HETATM    3  C   LIG     1      -8.551   0.835  -1.796  1.00  0.00     0.235 C 
HETATM    4  N   LIG     1      -9.627   1.246  -0.807  1.00  0.00    -0.071 N 
HETATM    5  C   LIG     1      -9.169   1.020   0.620  1.00  0.00     0.235 C 
HETATM    6  C   LIG     1      -7.920   1.841   0.890  1.00  0.00     0.038 C 
HETATM    7  H   LIG     1      -9.769   2.259  -0.938  1.00  0.00     0.279 HD
ENDROOT
BRANCH   4   8
HETATM    8  C   LIG     1     -10.945   0.560  -1.118  1.00  0.00     0.236 C 
BRANCH   8   9
HETATM    9  C   LIG     1     -12.123   1.358  -0.543  1.00  0.00     0.048 C 
BRANCH   9  10
HETATM   10  C   LIG     1     -13.475   0.671  -0.836  1.00  0.00     0.127 C 
HETATM   11  C   LIG     1     -14.447   1.676  -1.375  1.00  0.00     0.235 C 
HETATM   12  O   LIG     1     -14.309   2.302  -2.414  1.00  0.00    -0.272 OA
HETATM   13  N   LIG     1     -15.737   2.020  -0.540  1.00  0.00    -0.305 N 
HETATM   14  C   LIG     1     -16.606   3.109  -1.063  1.00  0.00     0.133 C 
HETATM   15  C   LIG     1     -15.901   1.361   0.555  1.00  0.00     0.108 C 
HETATM   16  C   LIG     1     -17.954   3.137  -0.366  1.00  0.00     0.021 C 
HETATM   17  C   LIG     1     -17.773   2.989   1.134  1.00  0.00     0.009 C 
HETATM   18  C   LIG     1     -17.110   1.652   1.417  1.00  0.00     0.079 C 
HETATM   19  N   LIG     1     -15.099   0.347   1.003  1.00  0.00    -0.243 NA
HETATM   20  C   LIG     1     -14.016  -0.015   0.396  1.00  0.00     0.024 C 
HETATM   21  C   LIG     1     -13.244  -1.183   0.963  1.00  0.00     0.066 C 
ENDBRANCH   9  10
ENDBRANCH   8   9
ENDBRANCH   4   8
BRANCH   1  22
HETATM   22  C   LIG     1      -5.579   2.346   0.144  1.00  0.00     0.079 A 
HETATM   23  C   LIG     1      -4.264   1.915   0.456  1.00  0.00     0.027 A 
HETATM   24  C   LIG     1      -3.593   0.694   0.649  1.00  0.00     0.019 A 
HETATM   25  C   LIG     1      -3.551   3.096   0.578  1.00  0.00     0.116 A 
HETATM   26  C   LIG     1      -2.227   0.730   0.959  1.00  0.00     0.043 A 
HETATM   27  C   LIG     1      -1.556   1.948   1.070  1.00  0.00     0.119 A 
HETATM   28  F   LIG     1      -0.250   1.941   1.367  1.00  0.00    -0.206 F 
HETATM   29  C   LIG     1      -2.197   3.171   0.883  1.00  0.00     0.082 A 
HETATM   30  O   LIG     1      -4.381   4.148   0.353  1.00  0.00    -0.212 OA
HETATM   31  N   LIG     1      -5.656   3.683   0.080  1.00  0.00    -0.131 NA
ENDBRANCH   1  22
TORSDOF 4
