REMARK  4 active torsions:
REMARK  status: ('A' for Active; 'I' for Inactive)
REMARK    1  A    between atoms: C_2  and  O_3 
REMARK    2  A    between atoms: C_2  and  C_16 
REMARK    3  A    between atoms: O_3  and  C_4 
REMARK    4  A    between atoms: C_9  and  O_10 
ROOT
HETATM    1  C   LIG     1       1.711   2.037   0.874  1.00  0.00     0.136 C 
HETATM    2  C   LIG     1       2.263   3.529   0.810  1.00  0.00     0.065 C 
HETATM    3  C   LIG     1       3.618   3.381   0.202  1.00  0.00     0.191 C 
HETATM    4  N   LIG     1       4.342   2.325   1.056  1.00  0.00    -0.060 N 
HETATM    5  C   LIG     1       5.788   2.623   1.431  1.00  0.00     0.267 C 
HETATM    6  C   LIG     1       6.634   2.791   0.165  1.00  0.00     0.148 C 
HETATM    7  C   LIG     1       5.655   2.931  -1.009  1.00  0.00     0.020 C 
HETATM    8  C   LIG     1       4.652   4.103  -0.611  1.00  0.00     0.040 C 
HETATM    9  C   LIG     1       4.922   1.506  -1.133  1.00  0.00     0.040 C 
HETATM   10  C   LIG     1       4.165   1.114   0.204  1.00  0.00     0.191 C 
HETATM   11  C   LIG     1       2.605   0.921   0.135  1.00  0.00     0.065 C 
HETATM   12  H   LIG     1       3.877   2.189   1.964  1.00  0.00     0.281 HD
ENDROOT
BRANCH   1  13
HETATM   13  O   LIG     1       0.398   2.052   0.284  1.00  0.00    -0.312 OA
BRANCH  13  14
HETATM   14  C   LIG     1      -0.463   1.056   0.655  1.00  0.00     0.296 C 
HETATM   15  O   LIG     1      -0.183   0.175   1.460  1.00  0.00    -0.259 OA
BRANCH  14  16
HETATM   16  C   LIG     1      -1.745   1.154  -0.026  1.00  0.00     0.067 A 
HETATM   17  C   LIG     1      -2.100   2.131  -0.940  1.00  0.00     0.107 A 
HETATM   18  N   LIG     1      -3.378   1.887  -1.363  1.00  0.00    -0.364 N 
HETATM   19  C   LIG     1      -3.875   0.764  -0.748  1.00  0.00     0.043 A 
HETATM   20  H   LIG     1      -3.887   2.448  -2.032  1.00  0.00     0.165 HD
HETATM   21  C   LIG     1      -5.125   0.146  -0.878  1.00  0.00     0.030 A 
HETATM   22  C   LIG     1      -2.875   0.280   0.099  1.00  0.00     0.008 A 
HETATM   23  C   LIG     1      -5.363  -1.003  -0.119  1.00  0.00     0.002 A 
HETATM   24  C   LIG     1      -4.389  -1.512   0.736  1.00  0.00     0.001 A 
HETATM   25  C   LIG     1      -3.145  -0.882   0.855  1.00  0.00     0.015 A 
ENDBRANCH  14  16
ENDBRANCH  13  14
ENDBRANCH   1  13
BRANCH   6  26
HETATM   26  O   LIG     1       7.439   3.962   0.246  1.00  0.00    -0.394 OA
HETATM   27  H   LIG     1       8.257   3.744   0.728  1.00  0.00     0.210 HD
ENDBRANCH   6  26
TORSDOF 4
