REMARK  4 active torsions:
REMARK  status: ('A' for Active; 'I' for Inactive)
REMARK    1  A    between atoms: C_2  and  O_3 
REMARK    2  A    between atoms: C_2  and  C_16 
REMARK    3  A    between atoms: O_3  and  C_4 
REMARK    4  A    between atoms: C_12  and  C_13 
ROOT
HETATM    1  C   LIG     1       1.319  -2.852  -0.664  1.00  0.00     0.150 C 
HETATM    2  C   LIG     1       1.660  -4.426   0.007  1.00  0.00     0.067 C 
HETATM    3  C   LIG     1       3.288  -4.969  -0.011  1.00  0.00     0.191 C 
HETATM    4  N   LIG     1       4.332  -3.740   0.459  1.00  0.00    -0.065 N 
HETATM    5  C   LIG     1       4.427  -3.497   1.936  1.00  0.00     0.270 C 
HETATM    6  C   LIG     1       3.524  -2.914  -0.392  1.00  0.00     0.205 C 
HETATM    7  C   LIG     1       3.864  -3.527  -1.756  1.00  0.00     0.036 C 
HETATM    8  C   LIG     1       3.724  -5.023  -1.471  1.00  0.00     0.035 C 
HETATM    9  C   LIG     1       2.605  -1.781  -0.560  1.00  0.00     0.147 C 
HETATM   10  H   LIG     1       5.281  -3.896   0.092  1.00  0.00     0.280 HD
ENDROOT
BRANCH   1  11
HETATM   11  O   LIG     1       0.137  -2.351  -0.038  1.00  0.00    -0.311 OA
BRANCH  11  12
HETATM   12  C   LIG     1      -0.472  -1.322  -0.680  1.00  0.00     0.293 C 
HETATM   13  O   LIG     1      -0.211  -0.911  -1.802  1.00  0.00    -0.259 OA
BRANCH  12  14
HETATM   14  C   LIG     1      -1.555  -0.774   0.156  1.00  0.00     0.039 A 
HETATM   15  C   LIG     1      -2.614  -0.107  -0.472  1.00  0.00     0.017 A 
HETATM   16  C   LIG     1      -3.648   0.436   0.294  1.00  0.00     0.001 A 
HETATM   17  C   LIG     1      -3.622   0.321   1.684  1.00  0.00     0.000 A 
HETATM   18  C   LIG     1      -2.562  -0.332   2.313  1.00  0.00     0.001 A 
HETATM   19  C   LIG     1      -1.527  -0.877   1.553  1.00  0.00     0.017 A 
ENDBRANCH  12  14
ENDBRANCH  11  12
ENDBRANCH   1  11
BRANCH   9  20
HETATM   20  C   LIG     1       2.850  -0.816   0.589  1.00  0.00     0.181 C 
HETATM   21  O   LIG     1       3.949  -0.199   0.511  1.00  0.00    -0.648 OA
HETATM   22  O   LIG     1       1.981  -0.803   1.498  1.00  0.00    -0.648 OA
ENDBRANCH   9  20
TORSDOF 4
