REMARK  5 active torsions:
REMARK  status: ('A' for Active; 'I' for Inactive)
REMARK    1  A    between atoms: N_6  and  C_25 
REMARK    2  A    between atoms: C_8  and  C_11 
REMARK    3  A    between atoms: N_14  and  C_17 
REMARK    4  A    between atoms: C_17  and  C_18 
REMARK    5  A    between atoms: C_18  and  N_19 
ROOT
HETATM    1 CL   LIG     1       0.237   0.057   0.689  1.00  0.00    -0.084 Cl
HETATM    2  C   LIG     1       0.427  -1.620   0.347  1.00  0.00     0.035 A 
HETATM    3  C   LIG     1       1.663  -2.106  -0.051  1.00  0.00     0.026 A 
HETATM    4  C   LIG     1       1.833  -3.465  -0.331  1.00  0.00     0.032 A 
HETATM    5  C   LIG     1       0.735  -4.340  -0.185  1.00  0.00     0.050 A 
HETATM    6  N   LIG     1       0.609  -5.718  -0.378  1.00  0.00    -0.321 N 
HETATM    7  C   LIG     1      -0.733  -6.041  -0.282  1.00  0.00     0.106 A 
HETATM    8  C   LIG     1      -1.457  -4.933   0.110  1.00  0.00    -0.025 A 
HETATM    9  C   LIG     1      -0.531  -3.845   0.160  1.00  0.00     0.001 A 
HETATM   10  C   LIG     1      -0.677  -2.469   0.449  1.00  0.00     0.038 A 
ENDROOT
BRANCH   8  11
HETATM   11  C   LIG     1      -2.935  -4.856   0.394  1.00  0.00     0.024 C 
HETATM   12  C   LIG     1      -3.449  -6.025   1.243  1.00  0.00     0.037 C 
HETATM   13  C   LIG     1      -4.932  -5.869   1.545  1.00  0.00     0.235 C 
HETATM   14  N   LIG     1      -5.715  -5.755   0.251  1.00  0.00    -0.070 N 
HETATM   15  C   LIG     1      -5.238  -4.601  -0.602  1.00  0.00     0.235 C 
HETATM   16  H   LIG     1      -5.550  -6.627  -0.271  1.00  0.00     0.279 HD
HETATM   17  C   LIG     1      -3.753  -4.749  -0.897  1.00  0.00     0.037 C 
BRANCH  14  18
HETATM   18  C   LIG     1      -7.211  -5.697   0.548  1.00  0.00     0.254 C 
BRANCH  18  19
HETATM   19  C   LIG     1      -8.062  -5.926  -0.706  1.00  0.00     0.155 C 
BRANCH  19  20
HETATM   20  N   LIG     1      -9.465  -6.084  -0.375  1.00  0.00    -0.331 N 
HETATM   21  C   LIG     1     -10.442  -5.018  -0.470  1.00  0.00     0.147 A 
HETATM   22  C   LIG     1     -11.753  -5.681  -0.059  1.00  0.00     0.144 A 
HETATM   23  N   LIG     1     -11.381  -7.025   0.296  1.00  0.00    -0.341 N 
HETATM   24  C   LIG     1     -10.031  -7.264   0.097  1.00  0.00     0.318 A 
HETATM   25  H   LIG     1     -12.004  -7.742   0.648  1.00  0.00     0.164 HD
HETATM   26  O   LIG     1      -9.449  -8.313   0.318  1.00  0.00    -0.247 OA
ENDBRANCH  19  20
ENDBRANCH  18  19
ENDBRANCH  14  18
ENDBRANCH   8  11
BRANCH   6  27
HETATM   27  C   LIG     1       1.648  -6.666  -0.626  1.00  0.00     0.039 A 
HETATM   28  C   LIG     1       2.930  -6.478  -0.088  1.00  0.00     0.033 A 
HETATM   29  C   LIG     1       3.937  -7.416  -0.326  1.00  0.00     0.044 A 
HETATM   30  C   LIG     1       3.663  -8.542  -1.092  1.00  0.00     0.116 A 
HETATM   31  F   LIG     1       4.631  -9.439  -1.319  1.00  0.00    -0.206 F 
HETATM   32  C   LIG     1       2.394  -8.755  -1.617  1.00  0.00     0.044 A 
HETATM   33  C   LIG     1       1.381  -7.822  -1.379  1.00  0.00     0.033 A 
ENDBRANCH   6  27
TORSDOF 5
