REMARK  6 active torsions:
REMARK  status: ('A' for Active; 'I' for Inactive)
REMARK    1  A    between atoms: N_2  and  C_4 
REMARK    2  A    between atoms: C_9  and  C_10 
REMARK    3  A    between atoms: C_11  and  C_22 
REMARK    4  A    between atoms: C_16  and  C_17 
REMARK    5  A    between atoms: C_17  and  O_19 
REMARK    6  A    between atoms: C_22  and  O_24 
ROOT
HETATM    1  C   LIG     1       3.949   3.133   0.676  1.00  0.00     0.103 A 
HETATM    2  C   LIG     1       2.857   4.095   0.216  1.00  0.00     0.052 A 
HETATM    3  C   LIG     1       3.152   5.179  -0.531  1.00  0.00     0.018 A 
HETATM    4  N   LIG     1       4.471   5.439  -0.865  1.00  0.00    -0.362 N 
HETATM    5  C   LIG     1       5.560   4.690  -0.448  1.00  0.00     0.018 A 
HETATM    6  C   LIG     1       6.910   5.240  -0.828  1.00  0.00     0.069 C 
HETATM    7  C   LIG     1       5.356   3.577   0.286  1.00  0.00     0.052 A 
HETATM    8  C   LIG     1       2.147   6.190  -1.023  1.00  0.00     0.069 C 
HETATM    9  H   LIG     1       4.655   6.245  -1.456  1.00  0.00     0.165 HD
ENDROOT
BRANCH   1  10
HETATM   10  C   LIG     1       3.663   1.685   0.257  1.00  0.00    -0.012 A 
HETATM   11  C   LIG     1       3.593   1.211  -1.068  1.00  0.00     0.110 A 
HETATM   12  C   LIG     1       3.323  -0.131  -1.373  1.00  0.00     0.037 A 
HETATM   13  C   LIG     1       3.117  -1.038  -0.338  1.00  0.00     0.002 A 
HETATM   14  C   LIG     1       3.182  -0.605   0.984  1.00  0.00     0.001 A 
HETATM   15  C   LIG     1       3.452   0.736   1.278  1.00  0.00     0.011 A 
BRANCH  11  16
HETATM   16  N   LIG     1       3.806   2.084  -2.203  1.00  0.00    -0.115 N 
HETATM   17  O   LIG     1       2.805   2.621  -2.693  1.00  0.00    -0.532 OA
HETATM   18  O   LIG     1       4.964   2.175  -2.629  1.00  0.00    -0.532 OA
ENDBRANCH  11  16
ENDBRANCH   1  10
BRANCH   2  19
HETATM   19  C   LIG     1       1.466   3.788   0.602  1.00  0.00     0.291 C 
HETATM   20  O   LIG     1       0.510   3.821  -0.155  1.00  0.00    -0.260 OA
BRANCH  19  21
HETATM   21  O   LIG     1       1.432   3.464   1.920  1.00  0.00    -0.323 OA
HETATM   22  C   LIG     1       0.130   3.136   2.410  1.00  0.00     0.213 C 
ENDBRANCH  19  21
ENDBRANCH   2  19
BRANCH   7  23
HETATM   23  C   LIG     1       6.449   2.749   0.819  1.00  0.00     0.291 C 
HETATM   24  O   LIG     1       6.504   2.389   1.985  1.00  0.00    -0.260 OA
BRANCH  23  25
HETATM   25  O   LIG     1       7.297   2.387  -0.175  1.00  0.00    -0.323 OA
HETATM   26  C   LIG     1       8.352   1.516   0.237  1.00  0.00     0.213 C 
ENDBRANCH  23  25
ENDBRANCH   7  23
TORSDOF 6
