REMARK  4 active torsions:
REMARK  status: ('A' for Active; 'I' for Inactive)
REMARK    1  A    between atoms: O_1  and  C_4 
REMARK    2  A    between atoms: N_2  and  C_3 
REMARK    3  A    between atoms: C_3  and  C_4 
REMARK    4  A    between atoms: C_4  and  C_5 
ROOT
HETATM    1  C   LIG     1      -0.864   0.188  -0.548  1.00  0.00     0.181 C 
ENDROOT
BRANCH   1   2
HETATM    2  O   LIG     1      -1.105  -0.806  -1.548  1.00  0.00    -0.389 OA
HETATM    3  H   LIG     1      -2.018  -0.695  -1.860  1.00  0.00     0.210 HD
ENDBRANCH   1   2
BRANCH   1   4
HETATM    4  C   LIG     1      -1.744  -0.087   0.692  1.00  0.00     0.214 C 
HETATM    5  C   LIG     1      -1.504  -1.475   1.288  1.00  0.00     0.043 C 
BRANCH   4   6
HETATM    6  N   LIG     1      -3.161   0.008   0.321  1.00  0.00    -0.072 N 
HETATM    7  C   LIG     1      -3.454   1.314  -0.243  1.00  0.00     0.267 C 
HETATM    8  H   LIG     1      -3.413  -0.723  -0.342  1.00  0.00     0.277 HD
HETATM    9  H   LIG     1      -3.711  -0.116   1.159  1.00  0.00     0.277 HD
ENDBRANCH   4   6
ENDBRANCH   1   4
BRANCH   1  10
HETATM   10  C   LIG     1       0.621   0.164  -0.258  1.00  0.00    -0.028 A 
HETATM   11  C   LIG     1       1.255   1.337   0.113  1.00  0.00     0.010 A 
HETATM   12  C   LIG     1       2.624   1.316   0.381  1.00  0.00     0.001 A 
HETATM   13  C   LIG     1       3.337   0.122   0.274  1.00  0.00     0.000 A 
HETATM   14  C   LIG     1       2.681  -1.051  -0.102  1.00  0.00     0.001 A 
HETATM   15  C   LIG     1       1.312  -1.030  -0.370  1.00  0.00     0.010 A 
ENDBRANCH   1  10
TORSDOF 4
