REMARK  4 active torsions:
REMARK  status: ('A' for Active; 'I' for Inactive)
REMARK    1  A    between atoms: C_3  and  N_4 
REMARK    2  A    between atoms: N_7  and  C_15 
REMARK    3  A    between atoms: C_9  and  C_12 
REMARK    4  A    between atoms: C_20  and  N_21 
ROOT
HETATM    1  F   LIG     1       0.452  -0.410   0.653  1.00  0.00    -0.201 F 
HETATM    2  C   LIG     1       1.029  -1.610   0.459  1.00  0.00     0.173 A 
HETATM    3  C   LIG     1       2.403  -1.675   0.740  1.00  0.00     0.083 A 
HETATM    4  C   LIG     1       3.068  -2.902   0.585  1.00  0.00     0.070 A 
HETATM    5  C   LIG     1       2.391  -4.067   0.195  1.00  0.00     0.092 A 
HETATM    6  N   LIG     1       3.058  -5.309   0.133  1.00  0.00    -0.351 N 
HETATM    7  C   LIG     1       4.350  -5.399   0.166  1.00  0.00     0.088 C 
HETATM    8  C   LIG     1       5.213  -4.194   0.292  1.00  0.00     0.200 C 
HETATM    9  C   LIG     1       4.525  -2.984   0.826  1.00  0.00     0.183 C 
HETATM   10  O   LIG     1       5.122  -2.083   1.408  1.00  0.00    -0.291 OA
HETATM   11  C   LIG     1       1.006  -3.925  -0.100  1.00  0.00     0.173 A 
HETATM   12  F   LIG     1       0.360  -5.019  -0.539  1.00  0.00    -0.201 F 
HETATM   13  C   LIG     1       0.267  -2.713   0.016  1.00  0.00     0.113 A 
ENDROOT
BRANCH  13  14
HETATM   14  N   LIG     1      -1.120  -2.619  -0.265  1.00  0.00    -0.372 N 
HETATM   15  C   LIG     1      -1.772  -1.294  -0.172  1.00  0.00     0.155 C 
HETATM   16  C   LIG     1      -3.234  -1.232  -0.640  1.00  0.00     0.200 C 
HETATM   17  N   LIG     1      -3.950  -2.468  -0.190  1.00  0.00    -0.064 N 
HETATM   18  C   LIG     1      -3.965  -0.019  -0.079  1.00  0.00     0.041 C 
HETATM   19  C   LIG     1      -3.390  -3.660  -0.900  1.00  0.00     0.200 C 
HETATM   20  H   LIG     1      -4.960  -2.385  -0.375  1.00  0.00     0.278 HD
HETATM   21  H   LIG     1      -3.836  -2.582   0.827  1.00  0.00     0.278 HD
HETATM   22  C   LIG     1      -4.214  -4.882  -0.515  1.00  0.00     0.041 C 
HETATM   23  C   LIG     1      -1.892  -3.842  -0.570  1.00  0.00     0.155 C 
ENDBRANCH  13  14
BRANCH   3  24
HETATM   24  N   LIG     1       3.067  -0.530   1.168  1.00  0.00    -0.396 N 
HETATM   25  H   LIG     1       2.595   0.360   1.255  1.00  0.00     0.156 HD
HETATM   26  H   LIG     1       4.063  -0.614   1.398  1.00  0.00     0.156 HD
ENDBRANCH   3  24
BRANCH   6  27
HETATM   27  C   LIG     1       2.322  -6.545  -0.042  1.00  0.00     0.089 A 
HETATM   28  C   LIG     1       1.405  -7.018   1.070  1.00  0.00     0.028 A 
HETATM   29  C   LIG     1       2.668  -7.762   0.796  1.00  0.00     0.028 A 
ENDBRANCH   6  27
BRANCH   8  30
HETATM   30  C   LIG     1       5.740  -3.890  -1.099  1.00  0.00     0.190 C 
HETATM   31  O   LIG     1       4.836  -3.582  -1.928  1.00  0.00    -0.647 OA
HETATM   32  O   LIG     1       6.975  -4.055  -1.258  1.00  0.00    -0.647 OA
ENDBRANCH   8  30
TORSDOF 4
