REMARK  2 active torsions:
REMARK  status: ('A' for Active; 'I' for Inactive)
REMARK    1  A    between atoms: C_7  and  C_24 
REMARK    2  A    between atoms: C_16  and  N_17 
ROOT
HETATM    1  F   LIG     1      -0.315  -0.193   0.431  1.00  0.00    -0.204 F 
HETATM    2  C   LIG     1      -1.429  -0.932   0.302  1.00  0.00     0.146 A 
HETATM    3  C   LIG     1      -2.622  -0.221   0.435  1.00  0.00     0.062 A 
HETATM    4  C   LIG     1      -3.841  -0.877   0.330  1.00  0.00     0.048 A 
HETATM    5  C   LIG     1      -5.099  -0.097   0.472  1.00  0.00     0.203 A 
HETATM    6  O   LIG     1      -5.037   1.079   0.807  1.00  0.00    -0.286 OA
HETATM    7  C   LIG     1      -6.369  -0.804   0.235  1.00  0.00     0.107 A 
HETATM    8  C   LIG     1      -6.305  -2.122   0.018  1.00  0.00     0.114 A 
HETATM    9  N   LIG     1      -5.154  -2.894  -0.019  1.00  0.00    -0.346 N 
HETATM   10  C   LIG     1      -3.886  -2.259   0.109  1.00  0.00     0.085 A 
HETATM   11  C   LIG     1      -2.649  -2.971   0.008  1.00  0.00     0.126 A 
HETATM   12  O   LIG     1      -2.694  -4.341  -0.165  1.00  0.00    -0.344 OA
HETATM   13  C   LIG     1      -3.865  -4.927   0.400  1.00  0.00     0.201 C 
HETATM   14  C   LIG     1      -5.118  -4.349  -0.255  1.00  0.00     0.110 C 
HETATM   15  C   LIG     1      -6.341  -5.085   0.297  1.00  0.00     0.035 C 
HETATM   16  C   LIG     1      -1.365  -2.332   0.065  1.00  0.00     0.105 A 
ENDROOT
BRANCH  16  17
HETATM   17  N   LIG     1      -0.116  -3.007  -0.075  1.00  0.00    -0.373 N 
HETATM   18  C   LIG     1      -0.087  -4.461  -0.313  1.00  0.00     0.151 C 
HETATM   19  C   LIG     1       1.289  -5.079  -0.569  1.00  0.00     0.254 C 
HETATM   20  N   LIG     1       2.334  -4.414   0.283  1.00  0.00    -0.072 N 
HETATM   21  C   LIG     1       3.647  -5.134   0.262  1.00  0.00     0.269 C 
HETATM   22  C   LIG     1       2.443  -2.983  -0.160  1.00  0.00     0.254 C 
HETATM   23  H   LIG     1       1.986  -4.411   1.253  1.00  0.00     0.279 HD
HETATM   24  C   LIG     1       1.133  -2.233   0.087  1.00  0.00     0.151 C 
ENDBRANCH  16  17
BRANCH   7  25
HETATM   25  C   LIG     1      -7.725  -0.097   0.205  1.00  0.00     0.214 C 
HETATM   26  O   LIG     1      -8.640  -0.653   0.884  1.00  0.00    -0.644 OA
HETATM   27  O   LIG     1      -7.801   0.921  -0.540  1.00  0.00    -0.644 OA
ENDBRANCH   7  25
TORSDOF 2
