REMARK  2 active torsions:
REMARK  status: ('A' for Active; 'I' for Inactive)
REMARK    1  A    between atoms: N_4  and  C_8 
REMARK    2  A    between atoms: N_4  and  C_9 
ROOT
HETATM    1  N   LIG     1       0.507   0.002  -0.926  1.00  0.00    -0.189 N 
HETATM    2  H   LIG     1       0.558   0.002  -1.940  1.00  0.00     0.184 HD
ENDROOT
BRANCH   1   3
HETATM    3  C   LIG     1       1.670   0.002  -0.216  1.00  0.00     0.674 A 
HETATM    4  N   LIG     1       2.833   0.000  -0.927  1.00  0.00    -0.225 N 
HETATM    5  C   LIG     1       3.960  -0.003  -0.046  1.00  0.00     0.158 A 
HETATM    6  H   LIG     1       2.909  -0.001  -1.936  1.00  0.00     0.177 HD
HETATM    7  C   LIG     1       3.269   0.002   1.324  1.00  0.00     0.158 A 
HETATM    8  N   LIG     1       1.793   0.002   1.090  1.00  0.00    -0.225 N 
HETATM    9  H   LIG     1       1.057   0.002   1.781  1.00  0.00     0.177 HD
ENDBRANCH   1   3
BRANCH   1  10
HETATM   10  C   LIG     1      -0.795   0.000  -0.415  1.00  0.00     0.092 A 
HETATM   11  C   LIG     1      -1.458  -1.208  -0.153  1.00  0.00     0.063 A 
HETATM   12 CL   LIG     1      -0.694  -2.729  -0.453  1.00  0.00    -0.082 Cl
HETATM   13  C   LIG     1      -2.757  -1.210   0.357  1.00  0.00     0.026 A 
HETATM   14  C   LIG     1      -3.407  -0.003   0.612  1.00  0.00     0.003 A 
HETATM   15  C   LIG     1      -2.760   1.206   0.357  1.00  0.00     0.026 A 
HETATM   16  C   LIG     1      -1.461   1.208  -0.153  1.00  0.00     0.063 A 
HETATM   17 CL   LIG     1      -0.701   2.730  -0.453  1.00  0.00    -0.082 Cl
ENDBRANCH   1  10
TORSDOF 2
