REMARK  3 active torsions:
REMARK  status: ('A' for Active; 'I' for Inactive)
REMARK    1  A    between atoms: C_5  and  C_8 
REMARK    2  A    between atoms: C_11  and  N_12 
REMARK    3  A    between atoms: N_12  and  C_13 
ROOT
HETATM    1  C   LIG     1      -5.931   0.089  -0.160  1.00  0.00    -0.010 A 
HETATM    2  C   LIG     1      -6.677  -0.931   0.438  1.00  0.00     0.016 A 
HETATM    3  C   LIG     1      -8.074  -0.852   0.483  1.00  0.00     0.030 A 
HETATM    4  C   LIG     1      -8.757   0.239  -0.073  1.00  0.00     0.032 A 
HETATM    5  C   LIG     1      -7.998   1.251  -0.672  1.00  0.00     0.030 A 
HETATM    6  C   LIG     1      -6.599   1.179  -0.723  1.00  0.00     0.016 A 
ENDROOT
BRANCH   4   7
HETATM    7  N   LIG     1     -10.160   0.287   0.029  1.00  0.00    -0.356 N 
HETATM    8  H   LIG     1     -10.596  -0.629   0.095  1.00  0.00     0.166 HD
BRANCH   7   9
HETATM    9  C   LIG     1     -11.066   1.361   0.058  1.00  0.00     0.035 A 
HETATM   10  C   LIG     1     -10.709   2.647   0.468  1.00  0.00     0.046 A 
HETATM   11  C   LIG     1     -11.649   3.670   0.444  1.00  0.00     0.090 A 
HETATM   12  N   LIG     1     -12.896   3.425   0.018  1.00  0.00    -0.375 N 
HETATM   13  C   LIG     1     -13.284   2.209  -0.391  1.00  0.00     0.090 A 
HETATM   14  H   LIG     1     -13.574   4.189   0.006  1.00  0.00     0.164 HD
HETATM   15  C   LIG     1     -12.379   1.153  -0.381  1.00  0.00     0.046 A 
ENDBRANCH   7   9
ENDBRANCH   4   7
BRANCH   1  16
HETATM   16  C   LIG     1      -4.445  -0.027  -0.201  1.00  0.00     0.065 C 
HETATM   17  N   LIG     1      -3.899  -1.205  -0.130  1.00  0.00    -0.176 NA
HETATM   18  N   LIG     1      -2.544  -1.290  -0.168  1.00  0.00    -0.247 N 
HETATM   19  C   LIG     1      -1.665  -0.248  -0.015  1.00  0.00     0.237 C 
HETATM   20  H   LIG     1      -2.159  -2.217  -0.316  1.00  0.00     0.192 HD
HETATM   21  O   LIG     1      -0.448  -0.401  -0.081  1.00  0.00    -0.272 OA
HETATM   22  C   LIG     1      -2.292   1.073   0.328  1.00  0.00     0.111 C 
HETATM   23  C   LIG     1      -3.620   1.228  -0.378  1.00  0.00     0.071 C 
ENDBRANCH   1  16
TORSDOF 3
