REMARK  4 active torsions:
REMARK  status: ('A' for Active; 'I' for Inactive)
REMARK       I    between atoms: C_2  and  N_3 
REMARK    1  A    between atoms: C_2  and  C_19 
REMARK    2  A    between atoms: N_7  and  C_12 
REMARK    3  A    between atoms: C_12  and  C_13 
REMARK    4  A    between atoms: C_22  and  N_23 
ROOT
HETATM    1  O   LIG     1      -0.495  -1.552   2.289  1.00  0.00    -0.267 OA
HETATM    2  C   LIG     1      -0.162  -2.433   1.503  1.00  0.00     0.253 C 
HETATM    3  N   LIG     1       1.165  -2.648   1.114  1.00  0.00    -0.347 N 
HETATM    4  C   LIG     1       2.245  -2.104   1.952  1.00  0.00     0.132 C 
HETATM    5  C   LIG     1       3.351  -1.419   1.131  1.00  0.00     0.030 C 
HETATM    6  C   LIG     1       2.864  -0.113   0.493  1.00  0.00     0.241 C 
HETATM    7  N   LIG     1       1.761  -0.387  -0.505  1.00  0.00    -0.066 N 
HETATM    8  C   LIG     1       2.145  -1.424  -1.539  1.00  0.00     0.241 C 
HETATM    9  C   LIG     1       2.670  -2.706  -0.875  1.00  0.00     0.030 C 
HETATM   10  C   LIG     1       1.578  -3.427  -0.065  1.00  0.00     0.132 C 
HETATM   11  C   LIG     1       3.846  -2.370   0.042  1.00  0.00     0.015 C 
HETATM   12  H   LIG     1       0.993  -0.792   0.049  1.00  0.00     0.280 HD
ENDROOT
BRANCH   2  13
HETATM   13  C   LIG     1      -1.231  -3.252   0.892  1.00  0.00     0.032 A 
HETATM   14  C   LIG     1      -1.175  -4.647   0.939  1.00  0.00     0.019 A 
HETATM   15  C   LIG     1      -2.188  -5.397   0.338  1.00  0.00     0.030 A 
HETATM   16  C   LIG     1      -3.266  -4.768  -0.294  1.00  0.00     0.025 A 
HETATM   17  C   LIG     1      -3.327  -3.370  -0.299  1.00  0.00     0.030 A 
HETATM   18  C   LIG     1      -2.319  -2.610   0.298  1.00  0.00     0.019 A 
BRANCH  16  19
HETATM   19  N   LIG     1      -4.258  -5.515  -0.900  1.00  0.00    -0.399 N 
HETATM   20  H   LIG     1      -5.047  -5.070  -1.348  1.00  0.00     0.156 HD
HETATM   21  H   LIG     1      -4.214  -6.525  -0.903  1.00  0.00     0.156 HD
ENDBRANCH  16  19
ENDBRANCH   2  13
BRANCH   7  22
HETATM   22  C   LIG     1       1.214   0.871  -1.153  1.00  0.00     0.273 C 
BRANCH  22  23
HETATM   23  C   LIG     1       0.650   1.881  -0.190  1.00  0.00    -0.033 A 
HETATM   24  C   LIG     1      -0.476   1.579   0.591  1.00  0.00     0.009 A 
HETATM   25  C   LIG     1      -0.984   2.515   1.494  1.00  0.00     0.001 A 
HETATM   26  C   LIG     1      -0.380   3.763   1.622  1.00  0.00     0.000 A 
HETATM   27  C   LIG     1       0.734   4.079   0.847  1.00  0.00     0.001 A 
HETATM   28  C   LIG     1       1.248   3.144  -0.054  1.00  0.00     0.009 A 
ENDBRANCH  22  23
ENDBRANCH   7  22
TORSDOF 4
