REMARK  12 active torsions:
REMARK  status: ('A' for Active; 'I' for Inactive)
REMARK    1  A    between atoms: C_10  and  O_11 
REMARK    2  A    between atoms: C_10  and  C_17 
REMARK    3  A    between atoms: O_11  and  C_12 
REMARK    4  A    between atoms: C_12  and  C_14 
REMARK    5  A    between atoms: C_14  and  O_15 
REMARK    6  A    between atoms: C_17  and  C_18 
REMARK    7  A    between atoms: C_18  and  N_19 
REMARK    8  A    between atoms: N_19  and  C_21 
REMARK    9  A    between atoms: C_21  and  C_22 
REMARK   10  A    between atoms: C_22  and  C_23 
REMARK   11  A    between atoms: C_23  and  C_24 
REMARK   12  A    between atoms: C_33  and  C_34 
ROOT
HETATM    1  F   LIG     1       0.664   2.157   0.268  1.00  0.00    -0.206 F 
HETATM    2  C   LIG     1       1.902   1.675   0.102  1.00  0.00     0.117 A 
HETATM    3  C   LIG     1       2.226   1.007  -1.071  1.00  0.00     0.043 A 
HETATM    4  C   LIG     1       3.513   0.490  -1.246  1.00  0.00     0.011 A 
HETATM    5  C   LIG     1       4.485   0.631  -0.250  1.00  0.00    -0.044 A 
HETATM    6  C   LIG     1       4.142   1.358   0.914  1.00  0.00    -0.048 A 
HETATM    7  C   LIG     1       2.850   1.862   1.096  1.00  0.00     0.049 A 
HETATM    8  C   LIG     1       5.221   1.614   1.929  1.00  0.00     0.042 C 
HETATM    9  C   LIG     1       6.442   2.137   1.175  1.00  0.00     0.044 C 
HETATM   10  C   LIG     1       6.973   1.183   0.034  1.00  0.00     0.080 C 
HETATM   11  C   LIG     1       5.901   0.038  -0.276  1.00  0.00     0.058 C 
ENDROOT
BRANCH  10  12
HETATM   12  O   LIG     1       7.109   1.980  -1.180  1.00  0.00    -0.308 OA
BRANCH  12  13
HETATM   13  C   LIG     1       7.929   3.073  -1.220  1.00  0.00     0.283 C 
HETATM   14  O   LIG     1       8.739   3.371  -0.353  1.00  0.00    -0.263 OA
BRANCH  13  15
HETATM   15  C   LIG     1       7.688   3.829  -2.522  1.00  0.00     0.277 C 
BRANCH  15  16
HETATM   16  O   LIG     1       8.414   5.040  -2.660  1.00  0.00    -0.386 OA
HETATM   17  C   LIG     1       9.759   4.838  -3.072  1.00  0.00     0.202 C 
ENDBRANCH  15  16
ENDBRANCH  13  15
ENDBRANCH  12  13
ENDBRANCH  10  12
BRANCH  10  18
HETATM   18  C   LIG     1       8.338   0.571   0.497  1.00  0.00     0.067 C 
BRANCH  18  19
HETATM   19  C   LIG     1       9.366   0.212  -0.581  1.00  0.00     0.237 C 
BRANCH  19  20
HETATM   20  N   LIG     1      10.665  -0.238   0.088  1.00  0.00    -0.075 N 
HETATM   21  C   LIG     1      10.610  -1.682   0.521  1.00  0.00     0.269 C 
HETATM   22  H   LIG     1      10.776   0.333   0.938  1.00  0.00     0.279 HD
BRANCH  20  23
HETATM   23  C   LIG     1      11.876   0.072  -0.779  1.00  0.00     0.234 C 
BRANCH  23  24
HETATM   24  C   LIG     1      13.157  -0.007   0.046  1.00  0.00     0.035 C 
BRANCH  24  25
HETATM   25  C   LIG     1      14.365   0.496  -0.750  1.00  0.00     0.080 C 
BRANCH  25  26
HETATM   26  C   LIG     1      15.595   0.492   0.092  1.00  0.00     0.105 A 
HETATM   27  N   LIG     1      15.707   0.978   1.311  1.00  0.00    -0.233 NA
HETATM   28  C   LIG     1      17.012   0.755   1.680  1.00  0.00     0.085 A 
HETATM   29  C   LIG     1      17.676   1.070   2.876  1.00  0.00     0.034 A 
HETATM   30  C   LIG     1      17.712   0.118   0.662  1.00  0.00     0.062 A 
HETATM   31  C   LIG     1      19.030   0.728   3.002  1.00  0.00     0.002 A 
HETATM   32  C   LIG     1      19.706   0.088   1.961  1.00  0.00     0.002 A 
HETATM   33  C   LIG     1      19.059  -0.234   0.761  1.00  0.00     0.032 A 
HETATM   34  N   LIG     1      16.788  -0.035  -0.340  1.00  0.00    -0.343 N 
HETATM   35  H   LIG     1      16.960  -0.461  -1.239  1.00  0.00     0.167 HD
ENDBRANCH  25  26
ENDBRANCH  24  25
ENDBRANCH  23  24
ENDBRANCH  20  23
ENDBRANCH  19  20
ENDBRANCH  18  19
ENDBRANCH  10  18
BRANCH  11  36
HETATM   36  C   LIG     1       6.268  -0.975  -1.412  1.00  0.00    -0.011 C 
HETATM   37  C   LIG     1       6.462  -0.390  -2.813  1.00  0.00     0.010 C 
HETATM   38  C   LIG     1       5.348  -2.208  -1.451  1.00  0.00     0.010 C 
ENDBRANCH  11  36
TORSDOF 12
