REMARK  5 active torsions:
REMARK  status: ('A' for Active; 'I' for Inactive)
REMARK    1  A    between atoms: C_2  and  C_5 
REMARK    2  A    between atoms: C_12  and  C_13 
REMARK    3  A    between atoms: C_17  and  C_19 
REMARK    4  A    between atoms: C_19  and  O_20 
REMARK    5  A    between atoms: C_19  and  C_21 
ROOT
HETATM    1  C   LIG     1       1.949  -2.061  -1.344  1.00  0.00     0.141 A 
HETATM    2  N   LIG     1       2.781  -2.488  -0.364  1.00  0.00    -0.243 NA
HETATM    3  C   LIG     1       2.454  -3.547   0.393  1.00  0.00     0.083 A 
HETATM    4  C   LIG     1       1.233  -4.247   0.216  1.00  0.00     0.002 A 
HETATM    5  C   LIG     1       0.970  -5.358   1.053  1.00  0.00     0.014 A 
HETATM    6  C   LIG     1       1.870  -5.756   2.038  1.00  0.00     0.002 A 
HETATM    7  C   LIG     1       3.052  -5.054   2.209  1.00  0.00     0.019 A 
HETATM    8  C   LIG     1       3.344  -3.953   1.389  1.00  0.00     0.077 A 
HETATM    9  C   LIG     1       0.342  -3.774  -0.790  1.00  0.00    -0.013 A 
HETATM   10  C   LIG     1       0.724  -2.670  -1.568  1.00  0.00     0.047 A 
ENDROOT
BRANCH   9  11
HETATM   11  C   LIG     1      -1.044  -4.362  -1.018  1.00  0.00     0.182 C 
BRANCH  11  12
HETATM   12  O   LIG     1      -1.278  -4.484  -2.425  1.00  0.00    -0.389 OA
HETATM   13  H   LIG     1      -0.526  -4.968  -2.812  1.00  0.00     0.210 HD
ENDBRANCH  11  12
BRANCH  11  14
HETATM   14  C   LIG     1      -2.168  -3.481  -0.396  1.00  0.00     0.219 C 
HETATM   15  N   LIG     1      -1.938  -3.259   1.084  1.00  0.00    -0.068 N 
HETATM   16  C   LIG     1      -2.959  -2.380   1.729  1.00  0.00     0.233 C 
HETATM   17  H   LIG     1      -1.909  -4.159   1.583  1.00  0.00     0.277 HD
HETATM   18  H   LIG     1      -1.015  -2.826   1.231  1.00  0.00     0.277 HD
HETATM   19  C   LIG     1      -4.334  -3.005   1.561  1.00  0.00     0.027 C 
HETATM   20  C   LIG     1      -4.649  -3.279   0.094  1.00  0.00     0.004 C 
HETATM   21  C   LIG     1      -3.555  -4.114  -0.571  1.00  0.00     0.036 C 
ENDBRANCH  11  14
ENDBRANCH   9  11
BRANCH   1  22
HETATM   22  C   LIG     1       2.349  -0.856  -2.171  1.00  0.00     0.434 C 
HETATM   23  F   LIG     1       2.058  -1.012  -3.494  1.00  0.00    -0.165 F 
HETATM   24  F   LIG     1       3.676  -0.557  -2.117  1.00  0.00    -0.165 F 
HETATM   25  F   LIG     1       1.691   0.273  -1.781  1.00  0.00    -0.165 F 
ENDBRANCH   1  22
BRANCH   8  26
HETATM   26  C   LIG     1       4.631  -3.194   1.589  1.00  0.00     0.419 C 
HETATM   27  F   LIG     1       5.389  -3.700   2.606  1.00  0.00    -0.166 F 
HETATM   28  F   LIG     1       5.443  -3.211   0.496  1.00  0.00    -0.166 F 
HETATM   29  F   LIG     1       4.437  -1.884   1.912  1.00  0.00    -0.166 F 
ENDBRANCH   8  26
TORSDOF 5
