REMARK  3 active torsions:
REMARK  status: ('A' for Active; 'I' for Inactive)
REMARK    1  A    between atoms: C_3  and  N_4 
REMARK    2  A    between atoms: N_13  and  C_24 
REMARK    3  A    between atoms: C_15  and  C_21 
ROOT
HETATM    1  F   LIG     1       0.296   0.326   1.055  1.00  0.00    -0.203 F 
HETATM    2  C   LIG     1       0.915   1.405   0.546  1.00  0.00     0.149 A 
HETATM    3  C   LIG     1       0.152   2.543   0.235  1.00  0.00     0.072 A 
HETATM    4  C   LIG     1       0.865   3.655  -0.253  1.00  0.00     0.063 A 
HETATM    5  C   LIG     1       2.274   3.674  -0.434  1.00  0.00     0.051 A 
HETATM    6  N   LIG     1       2.930   4.824  -0.917  1.00  0.00    -0.354 N 
HETATM    7  C   LIG     1       4.210   4.860  -1.109  1.00  0.00     0.088 C 
HETATM    8  C   LIG     1       5.095   3.760  -0.649  1.00  0.00     0.200 C 
HETATM    9  C   LIG     1       4.422   2.446  -0.450  1.00  0.00     0.181 C 
HETATM   10  O   LIG     1       5.032   1.388  -0.562  1.00  0.00    -0.291 OA
HETATM   11  C   LIG     1       2.971   2.480  -0.145  1.00  0.00     0.047 A 
HETATM   12  C   LIG     1       2.307   1.346   0.375  1.00  0.00    -0.005 A 
HETATM   13  C   LIG     1       3.020   0.075   0.755  1.00  0.00     0.052 C 
ENDROOT
BRANCH   3  14
HETATM   14  N   LIG     1      -1.230   2.581   0.399  1.00  0.00    -0.375 N 
HETATM   15  C   LIG     1      -1.912   3.761   0.952  1.00  0.00     0.150 C 
HETATM   16  C   LIG     1      -3.236   4.048   0.230  1.00  0.00     0.252 C 
HETATM   17  N   LIG     1      -4.081   2.807   0.172  1.00  0.00    -0.068 N 
HETATM   18  C   LIG     1      -3.367   1.680  -0.538  1.00  0.00     0.199 C 
HETATM   19  H   LIG     1      -4.969   3.018  -0.306  1.00  0.00     0.277 HD
HETATM   20  H   LIG     1      -4.330   2.516   1.128  1.00  0.00     0.277 HD
HETATM   21  C   LIG     1      -4.296   0.475  -0.566  1.00  0.00     0.041 C 
HETATM   22  C   LIG     1      -2.033   1.365   0.172  1.00  0.00     0.155 C 
ENDBRANCH   3  14
BRANCH   6  23
HETATM   23  C   LIG     1       2.178   6.015  -1.264  1.00  0.00     0.089 A 
HETATM   24  C   LIG     1       2.696   7.385  -0.865  1.00  0.00     0.028 A 
HETATM   25  C   LIG     1       1.511   6.816  -0.162  1.00  0.00     0.028 A 
ENDBRANCH   6  23
BRANCH   8  26
HETATM   26  C   LIG     1       5.707   4.215   0.665  1.00  0.00     0.190 C 
HETATM   27  O   LIG     1       6.929   4.509   0.619  1.00  0.00    -0.647 OA
HETATM   28  O   LIG     1       4.872   4.314   1.610  1.00  0.00    -0.647 OA
ENDBRANCH   8  26
TORSDOF 3
