REMARK  4 active torsions:
REMARK  status: ('A' for Active; 'I' for Inactive)
REMARK    1  A    between atoms: C_7  and  C_8 
REMARK    2  A    between atoms: C_8  and  N_9 
REMARK    3  A    between atoms: C_8  and  C_14 
REMARK    4  A    between atoms: C_8  and  C_20 
ROOT
HETATM    1  C   LIG     1       2.935   2.440   0.102  1.00  0.00     0.121 C 
ENDROOT
BRANCH   1   2
HETATM    2  C   LIG     1       1.594   2.335  -0.731  1.00  0.00     0.002 A 
HETATM    3  C   LIG     1       0.332   2.765  -0.244  1.00  0.00     0.043 A 
HETATM    4 CL   LIG     1       0.083   3.456   1.325  1.00  0.00    -0.084 Cl
HETATM    5  C   LIG     1      -0.834   2.625  -1.015  1.00  0.00     0.024 A 
HETATM    6  C   LIG     1      -0.792   2.023  -2.266  1.00  0.00     0.002 A 
HETATM    7  C   LIG     1       0.413   1.534  -2.745  1.00  0.00     0.001 A 
HETATM    8  C   LIG     1       1.579   1.673  -1.984  1.00  0.00     0.012 A 
ENDBRANCH   1   2
BRANCH   1   9
HETATM    9  N   LIG     1       2.739   1.417   1.185  1.00  0.00    -0.327 N 
HETATM   10  C   LIG     1       2.590   1.603   2.537  1.00  0.00     0.210 A 
HETATM   11  N   LIG     1       2.451   0.469   3.188  1.00  0.00    -0.255 NA
HETATM   12  C   LIG     1       2.454  -0.500   2.227  1.00  0.00     0.135 A 
HETATM   13  C   LIG     1       2.613   0.053   0.981  1.00  0.00     0.113 A 
ENDBRANCH   1   9
BRANCH   1  14
HETATM   14  C   LIG     1       3.245   3.882   0.654  1.00  0.00    -0.020 A 
HETATM   15  C   LIG     1       2.680   5.040   0.077  1.00  0.00     0.010 A 
HETATM   16  C   LIG     1       3.022   6.321   0.524  1.00  0.00     0.001 A 
HETATM   17  C   LIG     1       3.967   6.482   1.531  1.00  0.00     0.000 A 
HETATM   18  C   LIG     1       4.588   5.365   2.077  1.00  0.00     0.001 A 
HETATM   19  C   LIG     1       4.246   4.084   1.631  1.00  0.00     0.010 A 
ENDBRANCH   1  14
BRANCH   1  20
HETATM   20  C   LIG     1       4.236   2.113  -0.743  1.00  0.00    -0.020 A 
HETATM   21  C   LIG     1       4.492   2.826  -1.940  1.00  0.00     0.010 A 
HETATM   22  C   LIG     1       5.652   2.610  -2.689  1.00  0.00     0.001 A 
HETATM   23  C   LIG     1       6.603   1.698  -2.249  1.00  0.00     0.000 A 
HETATM   24  C   LIG     1       6.403   1.015  -1.053  1.00  0.00     0.001 A 
HETATM   25  C   LIG     1       5.243   1.230  -0.301  1.00  0.00     0.010 A 
ENDBRANCH   1  20
TORSDOF 4
