REMARK  5 active torsions:
REMARK  status: ('A' for Active; 'I' for Inactive)
REMARK    1  A    between atoms: N_2  and  C_4 
REMARK    2  A    between atoms: N_2  and  C_5 
REMARK    3  A    between atoms: N_2  and  C_6 
REMARK    4  A    between atoms: N_3  and  C_7 
REMARK       I    between atoms: N_3  and  C_8 
REMARK    5  A    between atoms: C_4  and  C_8 
ROOT
HETATM    1  O   LIG     1       0.666  -0.134   1.461  1.00  0.00    -0.271 OA
HETATM    2  N   LIG     1      -0.399  -0.396  -0.615  1.00  0.00    -0.325 N 
HETATM    3  C   LIG     1       0.686  -0.383   0.260  1.00  0.00     0.248 C 
HETATM    4  H   LIG     1      -0.255  -0.808  -1.534  1.00  0.00     0.169 HD
ENDROOT
BRANCH   2   5
HETATM    5  C   LIG     1      -1.756  -0.130  -0.312  1.00  0.00     0.046 A 
HETATM    6  C   LIG     1      -2.586  -1.174   0.069  1.00  0.00    -0.035 A 
HETATM    7  C   LIG     1      -3.923  -0.912   0.366  1.00  0.00     0.009 A 
HETATM    8  C   LIG     1      -2.088  -2.580   0.170  1.00  0.00     0.050 C 
HETATM    9  C   LIG     1      -4.415   0.390   0.279  1.00  0.00     0.001 A 
HETATM   10  C   LIG     1      -3.570   1.431  -0.105  1.00  0.00     0.009 A 
HETATM   11  C   LIG     1      -2.232   1.169  -0.403  1.00  0.00    -0.035 A 
HETATM   12  C   LIG     1      -1.352   2.305  -0.812  1.00  0.00     0.050 C 
ENDBRANCH   2   5
BRANCH   3  13
HETATM   13  C   LIG     1       1.965  -0.726  -0.484  1.00  0.00     0.337 C 
BRANCH  13  14
HETATM   14  N   LIG     1       3.094  -0.051   0.154  1.00  0.00    -0.064 N 
HETATM   15  H   LIG     1       3.143  -0.351   1.117  1.00  0.00     0.280 HD
BRANCH  14  16
HETATM   16  C   LIG     1       2.904   1.398   0.131  1.00  0.00     0.231 C 
HETATM   17  C   LIG     1       4.069   2.116   0.790  1.00  0.00     0.034 C 
ENDBRANCH  14  16
BRANCH  14  18
HETATM   18  C   LIG     1       4.347  -0.413  -0.509  1.00  0.00     0.231 C 
HETATM   19  C   LIG     1       4.592  -1.911  -0.440  1.00  0.00     0.034 C 
ENDBRANCH  14  18
ENDBRANCH  13  14
ENDBRANCH   3  13
TORSDOF 5
