REMARK  2 active torsions:
REMARK  status: ('A' for Active; 'I' for Inactive)
REMARK    1  A    between atoms: C_7  and  C_24 
REMARK    2  A    between atoms: C_16  and  N_17 
ROOT
HETATM    1  F   LIG     1      -0.315  -0.192  -0.431  1.00  0.00    -0.204 F 
HETATM    2  C   LIG     1      -1.428  -0.931  -0.301  1.00  0.00     0.146 A 
HETATM    3  C   LIG     1      -2.621  -0.220  -0.433  1.00  0.00     0.062 A 
HETATM    4  C   LIG     1      -3.841  -0.876  -0.327  1.00  0.00     0.048 A 
HETATM    5  C   LIG     1      -5.099  -0.097  -0.468  1.00  0.00     0.203 A 
HETATM    6  O   LIG     1      -5.037   1.081  -0.801  1.00  0.00    -0.286 OA
HETATM    7  C   LIG     1      -6.369  -0.804  -0.232  1.00  0.00     0.107 A 
HETATM    8  C   LIG     1      -6.304  -2.122  -0.015  1.00  0.00     0.114 A 
HETATM    9  N   LIG     1      -5.153  -2.893   0.021  1.00  0.00    -0.346 N 
HETATM   10  C   LIG     1      -3.886  -2.259  -0.107  1.00  0.00     0.085 A 
HETATM   11  C   LIG     1      -2.649  -2.970  -0.008  1.00  0.00     0.126 A 
HETATM   12  O   LIG     1      -2.693  -4.340   0.166  1.00  0.00    -0.344 OA
HETATM   13  C   LIG     1      -3.864  -4.927  -0.399  1.00  0.00     0.201 C 
HETATM   14  C   LIG     1      -5.117  -4.349   0.256  1.00  0.00     0.110 C 
HETATM   15  C   LIG     1      -6.340  -5.084  -0.297  1.00  0.00     0.035 C 
HETATM   16  C   LIG     1      -1.364  -2.331  -0.065  1.00  0.00     0.105 A 
ENDROOT
BRANCH  16  17
HETATM   17  N   LIG     1      -0.115  -3.006   0.074  1.00  0.00    -0.373 N 
HETATM   18  C   LIG     1      -0.086  -4.459   0.313  1.00  0.00     0.151 C 
HETATM   19  C   LIG     1       1.290  -5.077   0.568  1.00  0.00     0.254 C 
HETATM   20  N   LIG     1       2.334  -4.414  -0.288  1.00  0.00    -0.072 N 
HETATM   21  C   LIG     1       3.647  -5.134  -0.268  1.00  0.00     0.269 C 
HETATM   22  C   LIG     1       2.445  -2.982   0.153  1.00  0.00     0.254 C 
HETATM   23  H   LIG     1       1.985  -4.412  -1.257  1.00  0.00     0.279 HD
HETATM   24  C   LIG     1       1.134  -2.232  -0.091  1.00  0.00     0.151 C 
ENDBRANCH  16  17
BRANCH   7  25
HETATM   25  C   LIG     1      -7.725  -0.098  -0.203  1.00  0.00     0.214 C 
HETATM   26  O   LIG     1      -8.640  -0.656  -0.881  1.00  0.00    -0.644 OA
HETATM   27  O   LIG     1      -7.802   0.921   0.541  1.00  0.00    -0.644 OA
ENDBRANCH   7  25
TORSDOF 2
