REMARK  2 active torsions:
REMARK  status: ('A' for Active; 'I' for Inactive)
REMARK    1  A    between atoms: C_2  and  O_3 
REMARK    2  A    between atoms: C_2  and  C_5 
ROOT
HETATM    1  C   LIG     1      -0.539   1.584   1.049  1.00  0.00     0.044 C 
HETATM    2  C   LIG     1      -0.919   2.826   0.523  1.00  0.00    -0.009 C 
HETATM    3  C   LIG     1       0.221   3.819  -0.260  1.00  0.00     0.061 C 
HETATM    4  C   LIG     1       1.195   2.722  -0.091  1.00  0.00     0.192 C 
HETATM    5  N   LIG     1       2.260   2.127   0.660  1.00  0.00    -0.062 N 
HETATM    6  C   LIG     1       3.596   1.749   0.129  1.00  0.00     0.271 C 
HETATM    7  C   LIG     1       1.034   0.895   0.854  1.00  0.00     0.227 C 
HETATM    8  C   LIG     1       1.029   0.407  -0.593  1.00  0.00     0.040 C 
HETATM    9  C   LIG     1       1.074   1.772  -1.295  1.00  0.00     0.036 C 
HETATM   10  H   LIG     1       2.429   2.512   1.606  1.00  0.00     0.280 HD
ENDROOT
BRANCH   1  11
HETATM   11  C   LIG     1      -1.445   0.673   1.770  1.00  0.00     0.290 C 
HETATM   12  O   LIG     1      -1.084  -0.431   2.146  1.00  0.00    -0.260 OA
BRANCH  11  13
HETATM   13  O   LIG     1      -2.669   1.224   1.941  1.00  0.00    -0.323 OA
HETATM   14  C   LIG     1      -3.602   0.392   2.635  1.00  0.00     0.213 C 
ENDBRANCH  11  13
ENDBRANCH   1  11
TORSDOF 2
