REMARK  5 active torsions:
REMARK  status: ('A' for Active; 'I' for Inactive)
REMARK    1  A    between atoms: C_2  and  O_3 
REMARK    2  A    between atoms: C_2  and  C_17 
REMARK    3  A    between atoms: O_3  and  C_4 
REMARK    4  A    between atoms: C_12  and  C_13 
REMARK    5  A    between atoms: C_13  and  O_15 
ROOT
HETATM    1  C   LIG     1      -1.977   1.697  -0.896  1.00  0.00     0.149 C 
HETATM    2  C   LIG     1      -1.901   2.883  -1.882  1.00  0.00     0.066 C 
HETATM    3  C   LIG     1      -2.414   4.211  -1.298  1.00  0.00     0.191 C 
HETATM    4  N   LIG     1      -3.846   3.965  -0.862  1.00  0.00    -0.065 N 
HETATM    5  C   LIG     1      -4.676   5.208  -0.690  1.00  0.00     0.270 C 
HETATM    6  C   LIG     1      -3.645   3.150   0.414  1.00  0.00     0.204 C 
HETATM    7  C   LIG     1      -2.523   3.926   1.118  1.00  0.00     0.036 C 
HETATM    8  C   LIG     1      -1.724   4.610   0.005  1.00  0.00     0.035 C 
HETATM    9  C   LIG     1      -3.267   1.729  -0.052  1.00  0.00     0.146 C 
HETATM   10  H   LIG     1      -4.338   3.408  -1.575  1.00  0.00     0.280 HD
ENDROOT
BRANCH   1  11
HETATM   11  O   LIG     1      -0.839   1.729  -0.008  1.00  0.00    -0.311 OA
BRANCH  11  12
HETATM   12  C   LIG     1       0.316   1.190  -0.483  1.00  0.00     0.293 C 
HETATM   13  O   LIG     1       0.489   0.749  -1.610  1.00  0.00    -0.259 OA
BRANCH  12  14
HETATM   14  C   LIG     1       1.372   1.228   0.548  1.00  0.00     0.039 A 
HETATM   15  C   LIG     1       1.097   1.509   1.894  1.00  0.00     0.017 A 
HETATM   16  C   LIG     1       2.134   1.526   2.830  1.00  0.00     0.001 A 
HETATM   17  C   LIG     1       3.443   1.262   2.430  1.00  0.00     0.000 A 
HETATM   18  C   LIG     1       3.721   0.976   1.094  1.00  0.00     0.001 A 
HETATM   19  C   LIG     1       2.689   0.956   0.154  1.00  0.00     0.017 A 
ENDBRANCH  12  14
ENDBRANCH  11  12
ENDBRANCH   1  11
BRANCH   9  20
HETATM   20  C   LIG     1      -3.195   0.795   1.136  1.00  0.00     0.267 C 
HETATM   21  O   LIG     1      -3.389   1.139   2.293  1.00  0.00    -0.265 OA
BRANCH  20  22
HETATM   22  O   LIG     1      -2.927  -0.474   0.723  1.00  0.00    -0.326 OA
HETATM   23  C   LIG     1      -2.832  -1.435   1.777  1.00  0.00     0.213 C 
ENDBRANCH  20  22
ENDBRANCH   9  20
TORSDOF 5
