REMARK  10 active torsions:
REMARK  status: ('A' for Active; 'I' for Inactive)
REMARK    1  A    between atoms: C_4  and  C_11 
REMARK    2  A    between atoms: C_5  and  O_6 
REMARK    3  A    between atoms: C_9  and  N_10 
REMARK       I    between atoms: C_11  and  N_13 
REMARK    4  A    between atoms: N_13  and  C_14 
REMARK    5  A    between atoms: N_17  and  C_22 
REMARK    6  A    between atoms: C_19  and  O_20 
REMARK    7  A    between atoms: C_22  and  C_23 
REMARK    8  A    between atoms: C_23  and  C_24 
REMARK    9  A    between atoms: C_24  and  O_25 
REMARK   10  A    between atoms: O_25  and  C_26 
ROOT
HETATM    1  C   LIG     1       7.734   0.258   0.653  1.00  0.00     0.117 C 
HETATM    2  C   LIG     1       7.869   1.519  -0.205  1.00  0.00     0.055 C 
HETATM    3  C   LIG     1       9.108   2.312   0.171  1.00  0.00     0.237 C 
HETATM    4  N   LIG     1      10.341   1.448  -0.003  1.00  0.00    -0.068 N 
HETATM    5  C   LIG     1      10.253   0.182   0.829  1.00  0.00     0.268 C 
HETATM    6  C   LIG     1       8.988  -0.625   0.497  1.00  0.00     0.169 C 
HETATM    7  H   LIG     1      10.383   1.179  -0.997  1.00  0.00     0.280 HD
ENDROOT
BRANCH   1   8
HETATM    8  N   LIG     1       6.520  -0.480   0.304  1.00  0.00    -0.350 N 
HETATM    9  C   LIG     1       5.256  -0.039   0.631  1.00  0.00     0.254 C 
HETATM   10  O   LIG     1       5.059   1.017   1.229  1.00  0.00    -0.268 OA
HETATM   11  H   LIG     1       6.594  -1.373  -0.182  1.00  0.00     0.163 HD
BRANCH   9  12
HETATM   12  C   LIG     1       4.091  -0.893   0.221  1.00  0.00     0.067 A 
HETATM   13  C   LIG     1       2.815  -0.371   0.490  1.00  0.00     0.046 A 
HETATM   14  C   LIG     1       1.666  -1.084   0.144  1.00  0.00     0.061 A 
HETATM   15 CL   LIG     1       0.125  -0.381   0.498  1.00  0.00    -0.082 Cl
HETATM   16  C   LIG     1       1.757  -2.336  -0.479  1.00  0.00     0.050 A 
HETATM   17  C   LIG     1       3.032  -2.855  -0.743  1.00  0.00     0.068 A 
HETATM   18  C   LIG     1       4.203  -2.155  -0.399  1.00  0.00     0.086 A 
BRANCH  16  19
HETATM   19  N   LIG     1       0.631  -3.064  -0.837  1.00  0.00    -0.398 N 
HETATM   20  H   LIG     1      -0.287  -2.682  -0.641  1.00  0.00     0.156 HD
HETATM   21  H   LIG     1       0.699  -3.966  -1.286  1.00  0.00     0.156 HD
ENDBRANCH  16  19
BRANCH  18  22
HETATM   22  O   LIG     1       5.468  -2.631  -0.649  1.00  0.00    -0.355 OA
HETATM   23  C   LIG     1       5.591  -3.974  -1.109  1.00  0.00     0.210 C 
ENDBRANCH  18  22
ENDBRANCH   9  12
ENDBRANCH   1   8
BRANCH   6  24
HETATM   24  O   LIG     1       8.881  -1.725   1.411  1.00  0.00    -0.387 OA
HETATM   25  C   LIG     1       9.528  -2.906   0.955  1.00  0.00     0.202 C 
ENDBRANCH   6  24
BRANCH   4  26
HETATM   26  C   LIG     1      11.599   2.257   0.287  1.00  0.00     0.237 C 
BRANCH  26  27
HETATM   27  C   LIG     1      12.828   1.581  -0.303  1.00  0.00     0.054 C 
BRANCH  27  28
HETATM   28  C   LIG     1      14.072   2.443  -0.096  1.00  0.00     0.177 C 
BRANCH  28  29
HETATM   29  O   LIG     1      15.179   1.741  -0.657  1.00  0.00    -0.351 OA
BRANCH  29  30
HETATM   30  C   LIG     1      16.410   2.326  -0.540  1.00  0.00     0.068 A 
HETATM   31  C   LIG     1      17.466   1.570  -1.064  1.00  0.00     0.040 A 
HETATM   32  C   LIG     1      18.775   2.049  -1.010  1.00  0.00     0.045 A 
HETATM   33  C   LIG     1      19.022   3.286  -0.430  1.00  0.00     0.116 A 
HETATM   34  F   LIG     1      20.277   3.750  -0.375  1.00  0.00    -0.206 F 
HETATM   35  C   LIG     1      17.986   4.050   0.094  1.00  0.00     0.045 A 
HETATM   36  C   LIG     1      16.675   3.570   0.039  1.00  0.00     0.040 A 
ENDBRANCH  29  30
ENDBRANCH  28  29
ENDBRANCH  27  28
ENDBRANCH  26  27
ENDBRANCH   4  26
TORSDOF 10
