REMARK  2 active torsions:
REMARK  status: ('A' for Active; 'I' for Inactive)
REMARK       I    between atoms: C_2  and  N_3 
REMARK    1  A    between atoms: C_2  and  C_14 
REMARK    2  A    between atoms: N_3  and  C_4 
ROOT
HETATM    1  O   LIG     1       0.536  -0.332   0.128  1.00  0.00    -0.266 OA
HETATM    2  C   LIG     1       0.636   0.852  -0.173  1.00  0.00     0.273 C 
HETATM    3  N   LIG     1       1.809   1.441  -0.613  1.00  0.00    -0.351 N 
HETATM    4  H   LIG     1       1.710   2.434  -0.823  1.00  0.00     0.163 HD
ENDROOT
BRANCH   3   5
HETATM    5  C   LIG     1       3.060   0.717  -0.769  1.00  0.00     0.088 C 
HETATM    6  C   LIG     1       3.717   0.397   0.581  1.00  0.00     0.058 C 
HETATM    7  C   LIG     1       4.586   1.526   1.144  1.00  0.00     0.190 C 
HETATM    8  N   LIG     1       5.607   1.949   0.110  1.00  0.00    -0.066 N 
HETATM    9  C   LIG     1       3.776   2.758   1.590  1.00  0.00     0.033 C 
HETATM   10  C   LIG     1       6.684   0.931  -0.174  1.00  0.00     0.270 C 
HETATM   11  C   LIG     1       4.915   2.499  -1.115  1.00  0.00     0.190 C 
HETATM   12  H   LIG     1       6.134   2.730   0.525  1.00  0.00     0.280 HD
HETATM   13  C   LIG     1       4.172   3.789  -0.727  1.00  0.00     0.033 C 
HETATM   14  C   LIG     1       4.014   1.424  -1.741  1.00  0.00     0.058 C 
HETATM   15  C   LIG     1       4.030   4.025   0.776  1.00  0.00     0.004 C 
ENDBRANCH   3   5
BRANCH   2  16
HETATM   16  C   LIG     1      -0.474   1.806  -0.094  1.00  0.00     0.157 A 
HETATM   17  N   LIG     1      -0.284   3.103  -0.415  1.00  0.00    -0.166 NA
HETATM   18  N   LIG     1      -1.497   3.661  -0.228  1.00  0.00    -0.273 N 
HETATM   19  C   LIG     1      -1.679   5.070  -0.490  1.00  0.00     0.180 C 
HETATM   20  C   LIG     1      -2.459   2.787   0.207  1.00  0.00     0.065 A 
HETATM   21  C   LIG     1      -3.815   2.958   0.519  1.00  0.00     0.032 A 
HETATM   22  C   LIG     1      -1.817   1.555   0.305  1.00  0.00     0.028 A 
HETATM   23  C   LIG     1      -4.525   1.831   0.944  1.00  0.00     0.002 A 
HETATM   24  C   LIG     1      -3.907   0.586   1.049  1.00  0.00     0.001 A 
HETATM   25  C   LIG     1      -2.552   0.432   0.732  1.00  0.00     0.016 A 
ENDBRANCH   2  16
TORSDOF 2
