REMARK  8 active torsions:
REMARK  status: ('A' for Active; 'I' for Inactive)
REMARK    1  A    between atoms: C_4  and  C_12 
REMARK    2  A    between atoms: C_5  and  O_6 
REMARK    3  A    between atoms: O_6  and  C_7 
REMARK    4  A    between atoms: C_10  and  N_11 
REMARK       I    between atoms: C_12  and  N_14 
REMARK    5  A    between atoms: N_14  and  C_15 
REMARK    6  A    between atoms: C_15  and  C_16 
REMARK    7  A    between atoms: N_20  and  C_22 
REMARK    8  A    between atoms: C_22  and  C_23 
ROOT
HETATM    1  C   LIG     1       0.919  -4.251   1.287  1.00  0.00     0.254 C 
HETATM    2  O   LIG     1       1.783  -3.782   2.024  1.00  0.00    -0.268 OA
HETATM    3  N   LIG     1       0.988  -5.537   0.798  1.00  0.00    -0.354 N 
HETATM    4  H   LIG     1       0.268  -5.843   0.144  1.00  0.00     0.162 HD
ENDROOT
BRANCH   3   5
HETATM    5  C   LIG     1       2.041  -6.461   1.181  1.00  0.00     0.156 C 
BRANCH   5   6
HETATM    6  C   LIG     1       3.337  -6.231   0.391  1.00  0.00     0.165 C 
HETATM    7  O   LIG     1       3.210  -6.815  -0.916  1.00  0.00    -0.381 OA
HETATM    8  C   LIG     1       4.290  -6.432  -1.780  1.00  0.00     0.196 C 
HETATM    9  C   LIG     1       5.639  -6.316  -1.056  1.00  0.00     0.261 C 
HETATM   10  N   LIG     1       5.635  -7.250   0.133  1.00  0.00    -0.063 N 
HETATM   11  C   LIG     1       4.529  -6.883   1.118  1.00  0.00     0.268 C 
HETATM   12  H   LIG     1       5.370  -8.170  -0.244  1.00  0.00     0.280 HD
BRANCH  10  13
HETATM   13  C   LIG     1       6.975  -7.410   0.809  1.00  0.00     0.273 C 
BRANCH  13  14
HETATM   14  C   LIG     1       7.997  -8.136  -0.026  1.00  0.00    -0.032 A 
HETATM   15  C   LIG     1       9.080  -7.442  -0.592  1.00  0.00     0.012 A 
HETATM   16  C   LIG     1      10.021  -8.115  -1.372  1.00  0.00     0.043 A 
HETATM   17  C   LIG     1       9.884  -9.481  -1.587  1.00  0.00     0.116 A 
HETATM   18  F   LIG     1      10.789 -10.126  -2.334  1.00  0.00    -0.206 F 
HETATM   19  C   LIG     1       8.823 -10.189  -1.035  1.00  0.00     0.043 A 
HETATM   20  C   LIG     1       7.879  -9.518  -0.255  1.00  0.00     0.012 A 
ENDBRANCH  13  14
ENDBRANCH  10  13
ENDBRANCH   5   6
ENDBRANCH   3   5
BRANCH   1  21
HETATM   21  C   LIG     1      -0.270  -3.419   0.901  1.00  0.00     0.067 A 
HETATM   22  C   LIG     1      -0.400  -2.180   1.551  1.00  0.00     0.046 A 
HETATM   23  C   LIG     1      -1.486  -1.344   1.280  1.00  0.00     0.061 A 
HETATM   24 CL   LIG     1      -1.590   0.165   2.122  1.00  0.00    -0.082 Cl
HETATM   25  C   LIG     1      -2.470  -1.717   0.354  1.00  0.00     0.050 A 
HETATM   26  C   LIG     1      -2.332  -2.951  -0.298  1.00  0.00     0.068 A 
HETATM   27  C   LIG     1      -1.245  -3.806  -0.042  1.00  0.00     0.086 A 
BRANCH  25  28
HETATM   28  N   LIG     1      -3.563  -0.907   0.073  1.00  0.00    -0.398 N 
HETATM   29  H   LIG     1      -4.269  -1.179  -0.597  1.00  0.00     0.156 HD
HETATM   30  H   LIG     1      -3.658  -0.017   0.551  1.00  0.00     0.156 HD
ENDBRANCH  25  28
BRANCH  27  31
HETATM   31  O   LIG     1      -1.071  -5.021  -0.660  1.00  0.00    -0.350 OA
BRANCH  31  32
HETATM   32  C   LIG     1      -1.991  -5.394  -1.688  1.00  0.00     0.171 C 
HETATM   33  C   LIG     1      -1.535  -6.727  -2.253  1.00  0.00     0.034 C 
ENDBRANCH  31  32
ENDBRANCH  27  31
ENDBRANCH   1  21
TORSDOF 8
