REMARK  7 active torsions:
REMARK  status: ('A' for Active; 'I' for Inactive)
REMARK    1  A    between atoms: O_1  and  C_6 
REMARK    2  A    between atoms: O_1  and  C_8 
REMARK    3  A    between atoms: O_2  and  C_5 
REMARK    4  A    between atoms: O_3  and  C_7 
REMARK    5  A    between atoms: O_4  and  C_9 
REMARK    6  A    between atoms: C_5  and  C_6 
REMARK    7  A    between atoms: C_5  and  C_7 
ROOT
HETATM    1  C   LIG     1       0.735  -0.432  -0.252  1.00  0.00     0.102 A 
HETATM    2  C   LIG     1       1.582   0.661  -0.095  1.00  0.00     0.101 A 
HETATM    3  C   LIG     1       1.235  -1.728  -0.186  1.00  0.00     0.039 A 
HETATM    4  C   LIG     1       2.943   0.455   0.130  1.00  0.00     0.039 A 
HETATM    5  C   LIG     1       2.596  -1.934   0.038  1.00  0.00     0.003 A 
HETATM    6  C   LIG     1       3.450  -0.843   0.196  1.00  0.00     0.003 A 
ENDROOT
BRANCH   1   7
HETATM    7  O   LIG     1      -0.603  -0.242  -0.473  1.00  0.00    -0.346 OA
BRANCH   7   8
HETATM    8  C   LIG     1      -1.481  -1.253   0.010  1.00  0.00     0.209 C 
BRANCH   8   9
HETATM    9  C   LIG     1      -2.812  -0.631   0.419  1.00  0.00     0.166 C 
BRANCH   9  10
HETATM   10  O   LIG     1      -2.568   0.345   1.435  1.00  0.00    -0.391 OA
HETATM   11  H   LIG     1      -3.426   0.734   1.676  1.00  0.00     0.210 HD
ENDBRANCH   9  10
BRANCH   9  12
HETATM   12  C   LIG     1      -3.483   0.070  -0.755  1.00  0.00     0.198 C 
BRANCH  12  13
HETATM   13  O   LIG     1      -4.729   0.606  -0.322  1.00  0.00    -0.398 OA
HETATM   14  H   LIG     1      -5.280  -0.138  -0.024  1.00  0.00     0.209 HD
ENDBRANCH  12  13
ENDBRANCH   9  12
ENDBRANCH   8   9
ENDBRANCH   7   8
ENDBRANCH   1   7
BRANCH   2  15
HETATM   15  O   LIG     1       1.098   1.933  -0.160  1.00  0.00    -0.353 OA
HETATM   16  C   LIG     1       2.037   2.993   0.012  1.00  0.00     0.210 C 
ENDBRANCH   2  15
TORSDOF 7
