REMARK  4 active torsions:
REMARK  status: ('A' for Active; 'I' for Inactive)
REMARK    1  A    between atoms: O_1  and  C_4 
REMARK    2  A    between atoms: N_2  and  C_3 
REMARK    3  A    between atoms: C_3  and  C_4 
REMARK    4  A    between atoms: C_4  and  C_5 
ROOT
HETATM    1  C   LIG     1       0.761   0.838   0.893  1.00  0.00     0.181 C 
ENDROOT
BRANCH   1   2
HETATM    2  O   LIG     1       0.679   2.262   0.788  1.00  0.00    -0.389 OA
HETATM    3  H   LIG     1      -0.015   2.566   1.398  1.00  0.00     0.210 HD
ENDBRANCH   1   2
BRANCH   1   4
HETATM    4  C   LIG     1       1.977   0.319   0.092  1.00  0.00     0.214 C 
HETATM    5  C   LIG     1       1.875   0.636  -1.401  1.00  0.00     0.043 C 
BRANCH   4   6
HETATM    6  N   LIG     1       2.079  -1.138   0.241  1.00  0.00    -0.072 N 
HETATM    7  C   LIG     1       3.250  -1.640  -0.456  1.00  0.00     0.267 C 
HETATM    8  H   LIG     1       2.157  -1.363   1.232  1.00  0.00     0.277 HD
HETATM    9  H   LIG     1       1.256  -1.569  -0.155  1.00  0.00     0.277 HD
ENDBRANCH   4   6
ENDBRANCH   1   4
BRANCH   1  10
HETATM   10  C   LIG     1      -0.565   0.288   0.412  1.00  0.00    -0.028 A 
HETATM   11  C   LIG     1      -1.264   0.971  -0.568  1.00  0.00     0.010 A 
HETATM   12  C   LIG     1      -2.485   0.464  -1.012  1.00  0.00     0.001 A 
HETATM   13  C   LIG     1      -2.988  -0.718  -0.468  1.00  0.00     0.000 A 
HETATM   14  C   LIG     1      -2.270  -1.394   0.518  1.00  0.00     0.001 A 
HETATM   15  C   LIG     1      -1.048  -0.887   0.962  1.00  0.00     0.010 A 
ENDBRANCH   1  10
TORSDOF 4
