REMARK  7 active torsions:
REMARK  status: ('A' for Active; 'I' for Inactive)
REMARK    1  A    between atoms: S_1  and  N_4 
REMARK    2  A    between atoms: S_1  and  C_15 
REMARK       I    between atoms: N_4  and  C_5 
REMARK       I    between atoms: C_5  and  N_7 
REMARK    3  A    between atoms: N_7  and  C_8 
REMARK    4  A    between atoms: C_18  and  C_21 
REMARK    5  A    between atoms: C_21  and  C_22 
REMARK    6  A    between atoms: C_22  and  N_23 
REMARK       I    between atoms: N_23  and  C_24 
REMARK       I    between atoms: C_24  and  N_26 
REMARK    7  A    between atoms: C_30  and  C_31 
ROOT
HETATM    1  C   LIG     1       1.440   0.963   0.293  1.00  0.00     0.081 A 
HETATM    2  C   LIG     1       1.761   2.295   0.556  1.00  0.00     0.026 A 
HETATM    3  C   LIG     1       3.072   2.736   0.359  1.00  0.00     0.009 A 
HETATM    4  C   LIG     1       4.062   1.853  -0.101  1.00  0.00    -0.057 A 
HETATM    5  C   LIG     1       3.723   0.511  -0.339  1.00  0.00     0.009 A 
HETATM    6  C   LIG     1       2.414   0.063  -0.142  1.00  0.00     0.026 A 
ENDROOT
BRANCH   1   7
HETATM    7  S   LIG     1      -0.261   0.388   0.529  1.00  0.00     0.287 S 
HETATM    8  O   LIG     1      -0.067  -0.981   1.003  1.00  0.00    -0.198 OA
HETATM    9  O   LIG     1      -0.775   1.312   1.544  1.00  0.00    -0.198 OA
BRANCH   7  10
HETATM   10  N   LIG     1      -0.953   0.530  -0.896  1.00  0.00    -0.102 NA
HETATM   11  C   LIG     1      -2.272   0.350  -0.982  1.00  0.00     0.353 C 
HETATM   12  O   LIG     1      -2.816  -0.197  -1.939  1.00  0.00    -0.244 OA
HETATM   13  N   LIG     1      -3.014   0.909   0.046  1.00  0.00    -0.336 N 
HETATM   14  H   LIG     1      -2.484   1.357   0.798  1.00  0.00     0.164 HD
BRANCH  13  15
HETATM   15  C   LIG     1      -4.465   0.900   0.150  1.00  0.00     0.086 C 
HETATM   16  C   LIG     1      -5.034  -0.516   0.339  1.00  0.00     0.026 C 
HETATM   17  C   LIG     1      -6.502  -0.641  -0.084  1.00  0.00     0.006 C 
HETATM   18  C   LIG     1      -7.264   0.674   0.103  1.00  0.00    -0.019 C 
HETATM   19  C   LIG     1      -8.751   0.500  -0.198  1.00  0.00     0.010 C 
HETATM   20  C   LIG     1      -6.658   1.794  -0.762  1.00  0.00     0.006 C 
HETATM   21  C   LIG     1      -5.151   1.644  -0.998  1.00  0.00     0.026 C 
ENDBRANCH  13  15
ENDBRANCH   7  10
ENDBRANCH   1   7
BRANCH   4  22
HETATM   22  C   LIG     1       5.471   2.341  -0.334  1.00  0.00     0.058 C 
BRANCH  22  23
HETATM   23  C   LIG     1       6.408   2.021   0.834  1.00  0.00     0.129 C 
BRANCH  23  24
HETATM   24  N   LIG     1       7.716   2.641   0.672  1.00  0.00    -0.342 N 
HETATM   25  C   LIG     1       8.691   2.095  -0.143  1.00  0.00     0.325 C 
HETATM   26  O   LIG     1       8.486   1.052  -0.761  1.00  0.00    -0.247 OA
HETATM   27  N   LIG     1       9.874   2.816  -0.204  1.00  0.00    -0.262 N 
HETATM   28  C   LIG     1      10.154   4.042   0.493  1.00  0.00     0.171 A 
HETATM   29  C   LIG     1      10.973   2.433  -0.970  1.00  0.00     0.258 A 
HETATM   30  C   LIG     1      11.545   4.373   0.063  1.00  0.00    -0.054 A 
HETATM   31  C   LIG     1      12.142   5.620   0.621  1.00  0.00     0.046 C 
HETATM   32  C   LIG     1      12.048   3.462  -0.786  1.00  0.00     0.013 A 
HETATM   33  O   LIG     1      11.118   1.456  -1.687  1.00  0.00    -0.267 OA
HETATM   34  H   LIG     1       7.881   3.493   1.186  1.00  0.00     0.164 HD
BRANCH  32  35
HETATM   35  C   LIG     1      13.329   3.261  -1.532  1.00  0.00     0.040 C 
HETATM   36  C   LIG     1      14.416   4.312  -1.392  1.00  0.00     0.010 C 
ENDBRANCH  32  35
ENDBRANCH  23  24
ENDBRANCH  22  23
ENDBRANCH   4  22
TORSDOF 7
