REMARK  2 active torsions:
REMARK  status: ('A' for Active; 'I' for Inactive)
REMARK       I    between atoms: N_20  and  C_23 
REMARK    1  A    between atoms: C_23  and  O_25 
REMARK    2  A    between atoms: O_25  and  C_26 
ROOT
HETATM    1 CL   LIG     1      -0.870  -0.726  -1.297  1.00  0.00    -0.084 Cl
HETATM    2  C   LIG     1       0.374  -1.915  -1.277  1.00  0.00     0.034 A 
HETATM    3  C   LIG     1       1.408  -1.849  -2.200  1.00  0.00     0.024 A 
HETATM    4  C   LIG     1       2.406  -2.824  -2.179  1.00  0.00     0.014 A 
HETATM    5  C   LIG     1       2.401  -3.862  -1.224  1.00  0.00    -0.017 A 
HETATM    6  C   LIG     1       1.327  -3.951  -0.309  1.00  0.00    -0.045 A 
HETATM    7  C   LIG     1       0.326  -2.954  -0.348  1.00  0.00     0.031 A 
HETATM    8  C   LIG     1       1.100  -5.070   0.696  1.00  0.00     0.044 C 
HETATM    9  C   LIG     1       2.161  -6.158   0.901  1.00  0.00     0.045 C 
HETATM   10  C   LIG     1       2.453  -6.929  -0.358  1.00  0.00    -0.028 A 
HETATM   11  C   LIG     1       2.084  -8.267  -0.513  1.00  0.00     0.011 A 
HETATM   12  C   LIG     1       2.368  -8.922  -1.708  1.00  0.00     0.020 A 
HETATM   13  C   LIG     1       3.012  -8.212  -2.710  1.00  0.00     0.117 A 
HETATM   14  N   LIG     1       3.386  -6.919  -2.601  1.00  0.00    -0.260 NA
HETATM   15  C   LIG     1       3.102  -6.307  -1.427  1.00  0.00     0.074 A 
HETATM   16  C   LIG     1       3.481  -4.881  -1.290  1.00  0.00     0.006 C 
HETATM   17  C   LIG     1       4.791  -4.555  -1.117  1.00  0.00    -0.063 C 
HETATM   18  C   LIG     1       5.943  -5.561  -1.168  1.00  0.00     0.055 C 
HETATM   19  C   LIG     1       6.804  -5.501   0.098  1.00  0.00     0.132 C 
HETATM   20  N   LIG     1       7.258  -4.135   0.357  1.00  0.00    -0.327 N 
HETATM   21  C   LIG     1       6.202  -3.132   0.434  1.00  0.00     0.132 C 
HETATM   22  C   LIG     1       5.317  -3.152  -0.819  1.00  0.00     0.055 C 
HETATM   23  C   LIG     1       8.586  -3.772   0.528  1.00  0.00     0.362 C 
HETATM   24  O   LIG     1       8.962  -2.624   0.741  1.00  0.00    -0.238 OA
ENDROOT
BRANCH  23  25
HETATM   25  O   LIG     1       9.435  -4.834   0.429  1.00  0.00    -0.304 OA
BRANCH  25  26
HETATM   26  C   LIG     1      10.823  -4.515   0.588  1.00  0.00     0.176 C 
HETATM   27  C   LIG     1      11.622  -5.795   0.439  1.00  0.00     0.034 C 
ENDBRANCH  25  26
ENDBRANCH  23  25
TORSDOF 2
