REMARK  6 active torsions:
REMARK  status: ('A' for Active; 'I' for Inactive)
REMARK    1  A    between atoms: N_1  and  C_2 
REMARK    2  A    between atoms: N_1  and  C_18 
REMARK    3  A    between atoms: C_2  and  C_4 
REMARK    4  A    between atoms: C_4  and  C_5 
REMARK    5  A    between atoms: C_5  and  C_6 
REMARK    6  A    between atoms: C_5  and  C_12 
ROOT
HETATM    1  C   LIG     1       3.702   0.947   0.539  1.00  0.00     0.053 C 
ENDROOT
BRANCH   1   2
HETATM    2  C   LIG     1       2.256   0.738  -0.004  1.00  0.00     0.046 C 
BRANCH   2   3
HETATM    3  C   LIG     1       1.142   1.080   1.006  1.00  0.00     0.183 C 
HETATM    4  C   LIG     1       0.818   2.556   1.163  1.00  0.00     0.040 C 
BRANCH   3   5
HETATM    5  N   LIG     1      -0.113   0.272   0.712  1.00  0.00    -0.064 N 
HETATM    6  H   LIG     1      -0.661   0.269   1.585  1.00  0.00     0.278 HD
HETATM    7  H   LIG     1       0.195  -0.707   0.622  1.00  0.00     0.278 HD
BRANCH   5   8
HETATM    8  C   LIG     1      -1.109   0.533  -0.413  1.00  0.00     0.115 C 
HETATM    9  C   LIG     1      -1.954  -0.752  -0.519  1.00  0.00     0.045 C 
HETATM   10  C   LIG     1      -2.036   1.695  -0.042  1.00  0.00     0.045 C 
HETATM   11  C   LIG     1      -0.410   0.780  -1.747  1.00  0.00     0.045 C 
ENDBRANCH   5   8
ENDBRANCH   3   5
ENDBRANCH   2   3
ENDBRANCH   1   2
BRANCH   1  12
HETATM   12  C   LIG     1       4.099   2.406   0.710  1.00  0.00    -0.050 A 
HETATM   13  C   LIG     1       4.580   2.857   1.952  1.00  0.00     0.008 A 
HETATM   14  C   LIG     1       4.962   4.189   2.131  1.00  0.00     0.001 A 
HETATM   15  C   LIG     1       4.876   5.088   1.071  1.00  0.00     0.000 A 
HETATM   16  C   LIG     1       4.413   4.655  -0.170  1.00  0.00     0.001 A 
HETATM   17  C   LIG     1       4.031   3.323  -0.351  1.00  0.00     0.008 A 
ENDBRANCH   1  12
BRANCH   1  18
HETATM   18  C   LIG     1       4.756   0.185  -0.268  1.00  0.00    -0.050 A 
HETATM   19  C   LIG     1       4.688   0.052  -1.665  1.00  0.00     0.008 A 
HETATM   20  C   LIG     1       5.682  -0.638  -2.365  1.00  0.00     0.001 A 
HETATM   21  C   LIG     1       6.761  -1.197  -1.684  1.00  0.00     0.000 A 
HETATM   22  C   LIG     1       6.852  -1.063  -0.302  1.00  0.00     0.001 A 
HETATM   23  C   LIG     1       5.859  -0.376   0.401  1.00  0.00     0.008 A 
ENDBRANCH   1  18
TORSDOF 6
