REMARK  7 active torsions:
REMARK  status: ('A' for Active; 'I' for Inactive)
REMARK    1  A    between atoms: O_1  and  C_3 
REMARK    2  A    between atoms: C_6  and  C_9 
REMARK    3  A    between atoms: C_9  and  N_10 
REMARK    4  A    between atoms: N_10  and  C_11 
REMARK    5  A    between atoms: N_10  and  C_16 
REMARK    6  A    between atoms: C_11  and  C_12 
REMARK    7  A    between atoms: C_12  and  N_13 
ROOT
HETATM    1  N   LIG     1      -6.318  -1.884   0.291  1.00  0.00    -0.360 N 
ENDROOT
BRANCH   1   2
HETATM    2  C   LIG     1      -5.586  -1.370   1.447  1.00  0.00     0.163 C 
BRANCH   2   3
HETATM    3  C   LIG     1      -4.433  -0.447   1.107  1.00  0.00    -0.040 A 
HETATM    4  C   LIG     1      -3.583  -0.039   2.146  1.00  0.00     0.011 A 
HETATM    5  C   LIG     1      -2.511   0.821   1.896  1.00  0.00     0.037 A 
HETATM    6  C   LIG     1      -2.265   1.301   0.608  1.00  0.00     0.068 A 
HETATM    7  C   LIG     1      -3.102   0.901  -0.433  1.00  0.00     0.037 A 
HETATM    8  C   LIG     1      -4.175   0.035  -0.184  1.00  0.00     0.011 A 
BRANCH   6   9
HETATM    9  O   LIG     1      -1.190   2.139   0.503  1.00  0.00    -0.356 OA
HETATM   10  C   LIG     1      -0.944   2.715  -0.774  1.00  0.00     0.210 C 
ENDBRANCH   6   9
ENDBRANCH   2   3
ENDBRANCH   1   2
BRANCH   1  11
HETATM   11  C   LIG     1      -5.866  -3.139  -0.318  1.00  0.00     0.152 C 
BRANCH  11  12
HETATM   12  C   LIG     1      -6.725  -4.328   0.147  1.00  0.00     0.253 C 
BRANCH  12  13
HETATM   13  N   LIG     1      -6.224  -5.650  -0.425  1.00  0.00    -0.077 N 
HETATM   14  C   LIG     1      -6.507  -5.792  -1.898  1.00  0.00     0.269 C 
HETATM   15  C   LIG     1      -6.779  -6.821   0.345  1.00  0.00     0.269 C 
HETATM   16  H   LIG     1      -5.202  -5.683  -0.303  1.00  0.00     0.279 HD
ENDBRANCH  12  13
ENDBRANCH  11  12
ENDBRANCH   1  11
BRANCH   1  17
HETATM   17  C   LIG     1      -7.423  -1.255  -0.267  1.00  0.00     0.125 A 
HETATM   18  N   LIG     1      -8.095  -1.910  -1.249  1.00  0.00    -0.244 NA
HETATM   19  C   LIG     1      -9.171  -1.315  -1.817  1.00  0.00     0.119 A 
HETATM   20  C   LIG     1      -9.641  -0.068  -1.461  1.00  0.00     0.019 A 
HETATM   21  C   LIG     1      -8.962   0.608  -0.463  1.00  0.00     0.005 A 
HETATM   22  C   LIG     1      -7.850   0.013   0.136  1.00  0.00     0.050 A 
ENDBRANCH   1  17
TORSDOF 7
