REMARK  1 active torsions:
REMARK  status: ('A' for Active; 'I' for Inactive)
REMARK    1  A    between atoms: C_8  and  O_9 
ROOT
HETATM    1  O   LIG     1       0.377   0.256   0.600  1.00  0.00    -0.288 OA
HETATM    2  C   LIG     1       1.022   1.297   0.668  1.00  0.00     0.177 C 
HETATM    3  C   LIG     1       0.383   2.526   1.161  1.00  0.00     0.052 C 
HETATM    4  C   LIG     1       0.970   3.710   0.971  1.00  0.00    -0.009 C 
HETATM    5  C   LIG     1       2.265   3.882   0.195  1.00  0.00     0.003 C 
HETATM    6  C   LIG     1       1.813   4.315  -1.219  1.00  0.00     0.025 C 
HETATM    7  C   LIG     1       3.103   5.002   0.882  1.00  0.00     0.050 C 
HETATM    8  C   LIG     1       4.532   5.202   0.326  1.00  0.00     0.127 C 
HETATM    9  C   LIG     1       4.986   4.043  -0.542  1.00  0.00     0.061 C 
HETATM   10  C   LIG     1       4.569   2.723   0.055  1.00  0.00     0.170 C 
HETATM   11  O   LIG     1       5.234   1.783  -0.785  1.00  0.00    -0.311 OA
HETATM   12  C   LIG     1       6.425   2.340  -1.184  1.00  0.00     0.263 C 
HETATM   13  O   LIG     1       7.315   1.723  -1.747  1.00  0.00    -0.265 OA
HETATM   14  C   LIG     1       6.466   3.812  -0.818  1.00  0.00     0.091 C 
HETATM   15  C   LIG     1       7.426   4.050   0.336  1.00  0.00     0.021 C 
HETATM   16  C   LIG     1       3.064   2.560   0.156  1.00  0.00    -0.028 C 
HETATM   17  C   LIG     1       2.477   1.356   0.346  1.00  0.00    -0.006 C 
HETATM   18  C   LIG     1       3.170   0.022   0.383  1.00  0.00     0.052 C 
ENDROOT
BRANCH   8  19
HETATM   19  O   LIG     1       4.611   6.409  -0.426  1.00  0.00    -0.395 OA
HETATM   20  H   LIG     1       3.945   6.384  -1.134  1.00  0.00     0.210 HD
ENDBRANCH   8  19
TORSDOF 1
