REMARK  14 active torsions:
REMARK  status: ('A' for Active; 'I' for Inactive)
REMARK    1  A    between atoms: C_5  and  C_6 
REMARK    2  A    between atoms: C_6  and  C_7 
REMARK    3  A    between atoms: C_8  and  C_10 
REMARK    4  A    between atoms: C_10  and  C_11 
REMARK    5  A    between atoms: C_11  and  C_12 
REMARK    6  A    between atoms: C_12  and  C_13 
REMARK    7  A    between atoms: C_13  and  C_15 
REMARK    8  A    between atoms: C_15  and  C_16 
REMARK    9  A    between atoms: C_16  and  C_17 
REMARK   10  A    between atoms: C_17  and  C_18 
REMARK   11  A    between atoms: C_18  and  C_20 
REMARK   12  A    between atoms: C_20  and  C_21 
REMARK   13  A    between atoms: C_21  and  C_22 
REMARK   14  A    between atoms: C_22  and  C_23 
ROOT
HETATM    1  C   LIG     1       5.540   2.193   0.331  1.00  0.00    -0.020 C 
HETATM    2  C   LIG     1       6.396   1.563   1.160  1.00  0.00    -0.087 C 
HETATM    3  C   LIG     1       6.710   1.983   2.570  1.00  0.00     0.043 C 
ENDROOT
BRANCH   2   4
HETATM    4  C   LIG     1       7.109   0.307   0.694  1.00  0.00     0.033 C 
BRANCH   4   5
HETATM    5  C   LIG     1       8.559   0.578   0.276  1.00  0.00     0.005 C 
BRANCH   5   6
HETATM    6  C   LIG     1       9.244  -0.708  -0.199  1.00  0.00     0.004 C 
BRANCH   6   7
HETATM    7  C   LIG     1      10.742  -0.528  -0.532  1.00  0.00    -0.019 C 
HETATM    8  C   LIG     1      10.942   0.386  -1.745  1.00  0.00     0.010 C 
BRANCH   7   9
HETATM    9  C   LIG     1      11.378  -1.918  -0.755  1.00  0.00     0.004 C 
BRANCH   9  10
HETATM   10  C   LIG     1      12.899  -1.880  -0.942  1.00  0.00     0.001 C 
BRANCH  10  11
HETATM   11  C   LIG     1      13.487  -3.296  -0.959  1.00  0.00     0.004 C 
BRANCH  11  12
HETATM   12  C   LIG     1      14.986  -3.348  -1.331  1.00  0.00    -0.019 C 
HETATM   13  C   LIG     1      15.411  -4.814  -1.474  1.00  0.00     0.010 C 
BRANCH  12  14
HETATM   14  C   LIG     1      15.859  -2.593  -0.306  1.00  0.00     0.004 C 
BRANCH  14  15
HETATM   15  C   LIG     1      17.356  -2.604  -0.641  1.00  0.00     0.001 C 
BRANCH  15  16
HETATM   16  C   LIG     1      18.143  -1.699   0.313  1.00  0.00     0.004 C 
BRANCH  16  17
HETATM   17  C   LIG     1      19.669  -1.782   0.119  1.00  0.00    -0.023 C 
HETATM   18  C   LIG     1      20.375  -0.957   1.199  1.00  0.00     0.009 C 
HETATM   19  C   LIG     1      20.110  -1.304  -1.265  1.00  0.00     0.009 C 
ENDBRANCH  16  17
ENDBRANCH  15  16
ENDBRANCH  14  15
ENDBRANCH  12  14
ENDBRANCH  11  12
ENDBRANCH  10  11
ENDBRANCH   9  10
ENDBRANCH   7   9
ENDBRANCH   6   7
ENDBRANCH   5   6
ENDBRANCH   4   5
ENDBRANCH   2   4
BRANCH   1  20
HETATM   20  C   LIG     1       4.711   3.425   0.583  1.00  0.00     0.070 C 
BRANCH  20  21
HETATM   21  C   LIG     1       3.230   3.144   0.416  1.00  0.00     0.006 A 
HETATM   22  C   LIG     1       2.378   2.877   1.419  1.00  0.00    -0.001 A 
HETATM   23  C   LIG     1       0.932   2.639   1.160  1.00  0.00     0.189 A 
HETATM   24  C   LIG     1       2.748   2.766   2.875  1.00  0.00     0.053 C 
HETATM   25  O   LIG     1       0.143   2.430   2.076  1.00  0.00    -0.287 OA
HETATM   26  C   LIG     1       0.453   2.656  -0.230  1.00  0.00     0.029 A 
HETATM   27  C   LIG     1       1.332   2.930  -1.270  1.00  0.00     0.029 A 
HETATM   28  C   LIG     1      -0.896   2.393  -0.504  1.00  0.00     0.016 A 
HETATM   29  C   LIG     1       2.750   3.207  -0.993  1.00  0.00     0.190 A 
HETATM   30  C   LIG     1       0.868   2.943  -2.592  1.00  0.00     0.016 A 
HETATM   31  O   LIG     1       3.506   3.474  -1.921  1.00  0.00    -0.287 OA
HETATM   32  C   LIG     1      -0.474   2.678  -2.865  1.00  0.00     0.001 A 
HETATM   33  C   LIG     1      -1.356   2.404  -1.821  1.00  0.00     0.001 A 
ENDBRANCH  20  21
ENDBRANCH   1  20
TORSDOF 14
