REMARK  1 active torsions:
REMARK  status: ('A' for Active; 'I' for Inactive)
REMARK    1  A    between atoms: C_5  and  C_7 
ROOT
HETATM    1  C   LIG     1      -3.620  -1.444  -0.232  1.00  0.00     0.222 C 
HETATM    2  N   LIG     1      -4.487  -0.199   0.019  1.00  0.00    -0.067 N 
HETATM    3  C   LIG     1      -4.128   0.648   1.206  1.00  0.00     0.270 C 
HETATM    4  C   LIG     1      -5.936  -0.668   0.070  1.00  0.00     0.235 C 
HETATM    5  C   LIG     1      -5.894  -2.114  -0.380  1.00  0.00     0.030 C 
HETATM    6  C   LIG     1      -4.554  -2.598   0.141  1.00  0.00     0.040 C 
HETATM    7  H   LIG     1      -4.386   0.402  -0.809  1.00  0.00     0.280 HD
ENDROOT
BRANCH   1   8
HETATM    8  C   LIG     1      -2.239  -1.441   0.362  1.00  0.00    -0.010 A 
HETATM    9  C   LIG     1      -1.919  -2.004   1.602  1.00  0.00     0.012 A 
HETATM   10  C   LIG     1      -0.613  -1.938   2.084  1.00  0.00     0.020 A 
HETATM   11  C   LIG     1       0.342  -1.301   1.312  1.00  0.00     0.116 A 
HETATM   12  N   LIG     1       0.078  -0.737   0.116  1.00  0.00    -0.273 NA
HETATM   13  C   LIG     1      -1.195  -0.823  -0.329  1.00  0.00     0.125 A 
ENDBRANCH   1   8
TORSDOF 1
