REMARK  7 active torsions:
REMARK  status: ('A' for Active; 'I' for Inactive)
REMARK    1  A    between atoms: C_5  and  C_8 
REMARK    2  A    between atoms: C_8  and  O_9 
REMARK    3  A    between atoms: N_12  and  C_15 
REMARK    4  A    between atoms: C_15  and  C_16 
REMARK    5  A    between atoms: C_16  and  C_17 
REMARK    6  A    between atoms: C_17  and  C_18 
REMARK    7  A    between atoms: C_18  and  C_20 
ROOT
HETATM    1  C   LIG     1       5.906  -0.307   0.658  1.00  0.00     0.088 C 
HETATM    2  C   LIG     1       6.813   0.015   1.859  1.00  0.00     0.071 C 
HETATM    3  C   LIG     1       8.214  -0.587   1.714  1.00  0.00     0.238 C 
HETATM    4  N   LIG     1       8.218  -1.686   0.675  1.00  0.00    -0.071 N 
HETATM    5  C   LIG     1       7.033  -2.601   0.855  1.00  0.00     0.238 C 
HETATM    6  C   LIG     1       5.740  -1.838   0.565  1.00  0.00     0.071 C 
HETATM    7  H   LIG     1       8.048  -1.188  -0.226  1.00  0.00     0.279 HD
ENDROOT
BRANCH   4   8
HETATM    8  C   LIG     1       9.519  -2.447   0.575  1.00  0.00     0.235 C 
BRANCH   8   9
HETATM    9  C   LIG     1      10.649  -1.546   0.090  1.00  0.00     0.035 C 
BRANCH   9  10
HETATM   10  C   LIG     1      11.935  -2.349  -0.126  1.00  0.00     0.085 C 
BRANCH  10  11
HETATM   11  C   LIG     1      13.083  -1.461  -0.575  1.00  0.00     0.159 C 
HETATM   12  O   LIG     1      12.938  -0.258  -0.774  1.00  0.00    -0.292 OA
BRANCH  11  13
HETATM   13  C   LIG     1      14.430  -2.076  -0.780  1.00  0.00     0.010 A 
HETATM   14  C   LIG     1      14.661  -3.447  -0.599  1.00  0.00     0.018 A 
HETATM   15  C   LIG     1      15.939  -3.973  -0.802  1.00  0.00     0.043 A 
HETATM   16  C   LIG     1      16.978  -3.133  -1.183  1.00  0.00     0.116 A 
HETATM   17  F   LIG     1      18.201  -3.644  -1.376  1.00  0.00    -0.206 F 
HETATM   18  C   LIG     1      16.768  -1.772  -1.368  1.00  0.00     0.043 A 
HETATM   19  C   LIG     1      15.493  -1.242  -1.166  1.00  0.00     0.018 A 
ENDBRANCH  11  13
ENDBRANCH  10  11
ENDBRANCH   9  10
ENDBRANCH   8   9
ENDBRANCH   4   8
BRANCH   1  20
HETATM   20  C   LIG     1       4.546   0.385   0.644  1.00  0.00    -0.024 A 
HETATM   21  C   LIG     1       3.740   0.309  -0.511  1.00  0.00     0.012 A 
HETATM   22  C   LIG     1       2.486   0.926  -0.566  1.00  0.00     0.024 A 
HETATM   23  C   LIG     1       2.015   1.629   0.538  1.00  0.00     0.034 A 
HETATM   24 CL   LIG     1       0.474   2.392   0.476  1.00  0.00    -0.084 Cl
HETATM   25  C   LIG     1       2.787   1.716   1.693  1.00  0.00     0.024 A 
HETATM   26  C   LIG     1       4.042   1.097   1.746  1.00  0.00     0.012 A 
ENDBRANCH   1  20
BRANCH   1  27
HETATM   27  O   LIG     1       6.654   0.098  -0.512  1.00  0.00    -0.385 OA
HETATM   28  H   LIG     1       6.305   0.964  -0.801  1.00  0.00     0.211 HD
ENDBRANCH   1  27
TORSDOF 7
