REMARK  4 active torsions:
REMARK  status: ('A' for Active; 'I' for Inactive)
REMARK    1  A    between atoms: C_6  and  C_7 
REMARK    2  A    between atoms: C_7  and  C_8 
REMARK    3  A    between atoms: C_8  and  C_9 
REMARK    4  A    between atoms: C_8  and  C_15 
ROOT
HETATM    1  C   LIG     1      -4.051   1.290  -0.025  1.00  0.00    -0.004 C 
ENDROOT
BRANCH   1   2
HETATM    2  C   LIG     1      -2.821   0.647   0.700  1.00  0.00     0.038 C 
BRANCH   2   3
HETATM    3  C   LIG     1      -1.452   1.052   0.122  1.00  0.00     0.186 C 
HETATM    4  N   LIG     1      -0.393   0.570   1.084  1.00  0.00    -0.071 N 
HETATM    5  C   LIG     1       1.003   0.913   0.678  1.00  0.00     0.232 C 
HETATM    6  H   LIG     1      -0.571   0.975   2.014  1.00  0.00     0.277 HD
HETATM    7  H   LIG     1      -0.472  -0.450   1.205  1.00  0.00     0.277 HD
HETATM    8  C   LIG     1       1.293   0.300  -0.682  1.00  0.00     0.027 C 
HETATM    9  C   LIG     1       0.258   0.724  -1.720  1.00  0.00     0.004 C 
HETATM   10  C   LIG     1      -1.164   0.424  -1.247  1.00  0.00     0.033 C 
ENDBRANCH   2   3
ENDBRANCH   1   2
BRANCH   1  11
HETATM   11  C   LIG     1      -4.510   2.651   0.636  1.00  0.00    -0.010 C 
HETATM   12  C   LIG     1      -5.349   3.510  -0.357  1.00  0.00     0.005 C 
HETATM   13  C   LIG     1      -5.184   5.025  -0.208  1.00  0.00     0.000 C 
HETATM   14  C   LIG     1      -5.088   5.421   1.254  1.00  0.00     0.000 C 
HETATM   15  C   LIG     1      -3.888   4.768   1.931  1.00  0.00     0.000 C 
HETATM   16  C   LIG     1      -3.369   3.526   1.198  1.00  0.00     0.005 C 
ENDBRANCH   1  11
BRANCH   1  17
HETATM   17  C   LIG     1      -5.175   0.180  -0.117  1.00  0.00    -0.010 C 
HETATM   18  C   LIG     1      -4.811  -0.848  -1.220  1.00  0.00     0.005 C 
HETATM   19  C   LIG     1      -5.814  -1.996  -1.306  1.00  0.00     0.000 C 
HETATM   20  C   LIG     1      -7.232  -1.487  -1.518  1.00  0.00     0.000 C 
HETATM   21  C   LIG     1      -7.618  -0.481  -0.443  1.00  0.00     0.000 C 
HETATM   22  C   LIG     1      -6.613   0.669  -0.354  1.00  0.00     0.005 C 
ENDBRANCH   1  17
TORSDOF 4
