REMARK  6 active torsions:
REMARK  status: ('A' for Active; 'I' for Inactive)
REMARK    1  A    between atoms: O_3  and  C_13 
REMARK    2  A    between atoms: O_3  and  C_18 
REMARK    3  A    between atoms: C_7  and  C_9 
REMARK    4  A    between atoms: C_8  and  C_9 
REMARK    5  A    between atoms: C_8  and  C_10 
REMARK    6  A    between atoms: C_18  and  C_19 
ROOT
HETATM    1 CL   LIG     1       1.600   2.352   0.437  1.00  0.00    -0.081 Cl
HETATM    2 CL   LIG     1      -1.589   2.508   0.379  1.00  0.00    -0.080 Cl
HETATM    3  C   LIG     1       1.272  -0.121  -0.611  1.00  0.00     0.038 A 
HETATM    4  C   LIG     1       0.647   1.026  -0.156  1.00  0.00     0.072 A 
HETATM    5  C   LIG     1       0.547  -1.199  -1.091  1.00  0.00     0.020 A 
HETATM    6  C   LIG     1      -1.492   0.022  -0.660  1.00  0.00     0.092 A 
HETATM    7  C   LIG     1      -0.746   1.099  -0.180  1.00  0.00     0.090 A 
HETATM    8  C   LIG     1      -0.846  -1.127  -1.116  1.00  0.00     0.039 A 
ENDROOT
BRANCH   3   9
HETATM    9  C   LIG     1       2.746  -0.255  -0.608  1.00  0.00     0.189 C 
HETATM   10  O   LIG     1       3.382   0.105  -1.594  1.00  0.00    -0.287 OA
BRANCH   9  11
HETATM   11  C   LIG     1       3.437  -0.849   0.578  1.00  0.00    -0.017 C 
HETATM   12  C   LIG     1       2.719  -1.259   1.634  1.00  0.00     0.023 C 
BRANCH  11  13
HETATM   13  C   LIG     1       4.942  -0.859   0.566  1.00  0.00     0.037 C 
HETATM   14  C   LIG     1       5.525   0.450   1.080  1.00  0.00     0.010 C 
ENDBRANCH  11  13
ENDBRANCH   9  11
ENDBRANCH   3   9
BRANCH   6  15
HETATM   15  O   LIG     1      -2.855   0.058  -0.698  1.00  0.00    -0.339 OA
BRANCH  15  16
HETATM   16  C   LIG     1      -3.549  -0.936   0.053  1.00  0.00     0.288 C 
BRANCH  16  17
HETATM   17  C   LIG     1      -4.878  -0.397   0.503  1.00  0.00     0.198 C 
HETATM   18  O   LIG     1      -5.559  -1.346   1.193  1.00  0.00    -0.646 OA
HETATM   19  O   LIG     1      -5.304   0.728   0.289  1.00  0.00    -0.646 OA
ENDBRANCH  16  17
ENDBRANCH  15  16
ENDBRANCH   6  15
TORSDOF 6
