REMARK  0 active torsions:
REMARK  status: ('A' for Active; 'I' for Inactive)
ROOT
HETATM    1 CL   LIG     1      -0.204  -0.799  -1.625  1.00  0.00    -0.084 Cl
HETATM    2  C   LIG     1      -1.858  -0.433  -1.319  1.00  0.00     0.034 A 
HETATM    3  C   LIG     1      -2.497   0.553  -2.069  1.00  0.00     0.024 A 
HETATM    4  C   LIG     1      -3.839   0.848  -1.824  1.00  0.00     0.014 A 
HETATM    5  C   LIG     1      -4.537   0.171  -0.815  1.00  0.00    -0.017 A 
HETATM    6  C   LIG     1      -3.899  -0.847  -0.082  1.00  0.00    -0.045 A 
HETATM    7  C   LIG     1      -2.550  -1.137  -0.333  1.00  0.00     0.031 A 
HETATM    8  C   LIG     1      -4.689  -1.649   0.925  1.00  0.00     0.044 C 
HETATM    9  C   LIG     1      -5.732  -2.551   0.250  1.00  0.00     0.045 C 
HETATM   10  C   LIG     1      -6.863  -1.928  -0.545  1.00  0.00    -0.028 A 
HETATM   11  C   LIG     1      -7.873  -2.795  -0.997  1.00  0.00     0.011 A 
HETATM   12  C   LIG     1      -8.927  -2.321  -1.769  1.00  0.00     0.020 A 
HETATM   13  C   LIG     1      -8.945  -0.976  -2.080  1.00  0.00     0.117 A 
HETATM   14  N   LIG     1      -8.005  -0.098  -1.673  1.00  0.00    -0.260 NA
HETATM   15  C   LIG     1      -6.982  -0.578  -0.909  1.00  0.00     0.074 A 
HETATM   16  C   LIG     1      -5.967   0.443  -0.541  1.00  0.00     0.006 C 
HETATM   17  C   LIG     1      -6.326   1.561   0.144  1.00  0.00    -0.063 C 
HETATM   18  C   LIG     1      -7.741   1.872   0.607  1.00  0.00     0.062 C 
HETATM   19  C   LIG     1      -8.280   3.128  -0.079  1.00  0.00     0.236 C 
HETATM   20  N   LIG     1      -7.185   4.137  -0.304  1.00  0.00    -0.075 N 
HETATM   21  C   LIG     1      -6.058   4.046   0.679  1.00  0.00     0.236 C 
HETATM   22  C   LIG     1      -5.367   2.678   0.553  1.00  0.00     0.062 C 
HETATM   23  H   LIG     1      -7.582   5.086  -0.308  1.00  0.00     0.277 HD
HETATM   24  H   LIG     1      -6.804   3.987  -1.249  1.00  0.00     0.277 HD
ENDROOT
TORSDOF 0
