REMARK  8 active torsions:
REMARK  status: ('A' for Active; 'I' for Inactive)
REMARK    1  A    between atoms: C_5  and  C_8 
REMARK    2  A    between atoms: C_8  and  N_9 
REMARK    3  A    between atoms: C_8  and  C_22 
REMARK    4  A    between atoms: N_12  and  C_15 
REMARK    5  A    between atoms: C_15  and  C_16 
REMARK    6  A    between atoms: C_16  and  O_17 
REMARK    7  A    between atoms: O_17  and  C_18 
REMARK    8  A    between atoms: C_18  and  C_19 
ROOT
HETATM    1  N   LIG     1       6.349  -2.534  -0.012  1.00  0.00    -0.056 N 
HETATM    2  C   LIG     1       6.718  -1.702  -1.228  1.00  0.00     0.263 C 
HETATM    3  C   LIG     1       7.889  -0.759  -0.899  1.00  0.00     0.262 C 
HETATM    4  N   LIG     1       9.090  -1.547  -0.381  1.00  0.00    -0.066 N 
HETATM    5  C   LIG     1       8.724  -2.410   0.820  1.00  0.00     0.262 C 
HETATM    6  C   LIG     1       7.543  -3.336   0.494  1.00  0.00     0.263 C 
HETATM    7  H   LIG     1       6.100  -1.864   0.728  1.00  0.00     0.281 HD
HETATM    8  H   LIG     1       9.413  -2.163  -1.144  1.00  0.00     0.280 HD
ENDROOT
BRANCH   1   9
HETATM    9  C   LIG     1       5.058  -3.393  -0.129  1.00  0.00     0.254 C 
BRANCH   9  10
HETATM   10  C   LIG     1       3.803  -2.545  -0.347  1.00  0.00    -0.023 A 
HETATM   11  C   LIG     1       3.294  -1.800   0.739  1.00  0.00     0.011 A 
HETATM   12  C   LIG     1       2.159  -0.996   0.598  1.00  0.00     0.024 A 
HETATM   13  C   LIG     1       1.515  -0.919  -0.632  1.00  0.00     0.034 A 
HETATM   14 CL   LIG     1       0.116   0.066  -0.808  1.00  0.00    -0.084 Cl
HETATM   15  C   LIG     1       1.999  -1.640  -1.719  1.00  0.00     0.024 A 
HETATM   16  C   LIG     1       3.135  -2.446  -1.578  1.00  0.00     0.011 A 
ENDBRANCH   9  10
BRANCH   9  17
HETATM   17  C   LIG     1       5.181  -4.682  -0.939  1.00  0.00    -0.023 A 
HETATM   18  C   LIG     1       4.960  -5.916  -0.292  1.00  0.00     0.009 A 
HETATM   19  C   LIG     1       5.078  -7.126  -0.980  1.00  0.00     0.001 A 
HETATM   20  C   LIG     1       5.413  -7.130  -2.330  1.00  0.00     0.000 A 
HETATM   21  C   LIG     1       5.623  -5.924  -2.992  1.00  0.00     0.001 A 
HETATM   22  C   LIG     1       5.506  -4.712  -2.304  1.00  0.00     0.009 A 
ENDBRANCH   9  17
ENDBRANCH   1   9
BRANCH   4  23
HETATM   23  C   LIG     1      10.250  -0.604  -0.089  1.00  0.00     0.261 C 
BRANCH  23  24
HETATM   24  C   LIG     1      11.559  -1.357   0.117  1.00  0.00     0.196 C 
BRANCH  24  25
HETATM   25  O   LIG     1      12.582  -0.382   0.215  1.00  0.00    -0.379 OA
BRANCH  25  26
HETATM   26  C   LIG     1      13.873  -0.976   0.403  1.00  0.00     0.280 C 
BRANCH  26  27
HETATM   27  C   LIG     1      14.911   0.145   0.494  1.00  0.00     0.197 C 
HETATM   28  O   LIG     1      15.168   0.541   1.666  1.00  0.00    -0.646 OA
HETATM   29  O   LIG     1      15.386   0.523  -0.615  1.00  0.00    -0.646 OA
ENDBRANCH  26  27
ENDBRANCH  25  26
ENDBRANCH  24  25
ENDBRANCH  23  24
ENDBRANCH   4  23
TORSDOF 8
