REMARK  12 active torsions:
REMARK  status: ('A' for Active; 'I' for Inactive)
REMARK    1  A    between atoms: N_2  and  C_4 
REMARK    2  A    between atoms: C_7  and  C_10 
REMARK       I    between atoms: C_10  and  N_12 
REMARK    3  A    between atoms: N_12  and  C_13 
REMARK    4  A    between atoms: N_12  and  C_21 
REMARK    5  A    between atoms: C_13  and  C_14 
REMARK    6  A    between atoms: C_14  and  C_15 
REMARK    7  A    between atoms: C_15  and  N_16 
REMARK    8  A    between atoms: N_16  and  C_17 
REMARK    9  A    between atoms: N_16  and  C_19 
REMARK   10  A    between atoms: C_21  and  C_22 
REMARK       I    between atoms: C_22  and  N_24 
REMARK   11  A    between atoms: N_24  and  C_25 
REMARK   12  A    between atoms: N_24  and  C_31 
ROOT
HETATM    1  C   LIG     1      -6.454   2.095  -1.331  1.00  0.00     0.254 C 
HETATM    2  O   LIG     1      -6.693   1.561  -2.410  1.00  0.00    -0.267 OA
HETATM    3  N   LIG     1      -7.426   2.632  -0.486  1.00  0.00    -0.339 N 
ENDROOT
BRANCH   3   4
HETATM    4  C   LIG     1      -7.170   3.456   0.702  1.00  0.00     0.128 C 
BRANCH   4   5
HETATM    5  C   LIG     1      -7.286   4.950   0.381  1.00  0.00     0.048 C 
BRANCH   5   6
HETATM    6  C   LIG     1      -7.153   5.783   1.653  1.00  0.00     0.236 C 
BRANCH   6   7
HETATM    7  N   LIG     1      -7.267   7.267   1.326  1.00  0.00    -0.072 N 
HETATM    8  H   LIG     1      -6.823   7.409   0.407  1.00  0.00     0.279 HD
BRANCH   7   9
HETATM    9  C   LIG     1      -6.494   8.122   2.320  1.00  0.00     0.230 C 
HETATM   10  C   LIG     1      -5.018   8.141   1.961  1.00  0.00     0.034 C 
ENDBRANCH   7   9
BRANCH   7  11
HETATM   11  C   LIG     1      -8.717   7.717   1.201  1.00  0.00     0.230 C 
HETATM   12  C   LIG     1      -8.817   8.904   0.260  1.00  0.00     0.034 C 
ENDBRANCH   7  11
ENDBRANCH   6   7
ENDBRANCH   5   6
ENDBRANCH   4   5
ENDBRANCH   3   4
BRANCH   3  13
HETATM   13  C   LIG     1      -8.830   2.337  -0.801  1.00  0.00     0.229 C 
BRANCH  13  14
HETATM   14  C   LIG     1      -9.382   1.194   0.071  1.00  0.00     0.238 C 
HETATM   15  O   LIG     1      -8.625   0.550   0.806  1.00  0.00    -0.272 OA
HETATM   16  N   LIG     1     -10.770   0.929   0.001  1.00  0.00    -0.341 N 
BRANCH  16  17
HETATM   17  C   LIG     1     -11.670   1.640  -0.953  1.00  0.00     0.087 C 
HETATM   18  C   LIG     1     -12.400   2.828  -0.302  1.00  0.00     0.025 C 
HETATM   19  C   LIG     1     -13.194   3.627  -1.334  1.00  0.00     0.002 C 
HETATM   20  C   LIG     1     -14.153   2.735  -2.118  1.00  0.00     0.000 C 
HETATM   21  C   LIG     1     -13.425   1.567  -2.778  1.00  0.00     0.002 C 
HETATM   22  C   LIG     1     -12.626   0.749  -1.762  1.00  0.00     0.025 C 
ENDBRANCH  16  17
BRANCH  16  23
HETATM   23  C   LIG     1     -11.271  -0.125   0.930  1.00  0.00     0.087 C 
HETATM   24  C   LIG     1     -11.289  -1.516   0.273  1.00  0.00     0.025 C 
HETATM   25  C   LIG     1     -11.665  -2.607   1.275  1.00  0.00     0.002 C 
HETATM   26  C   LIG     1     -12.980  -2.293   1.983  1.00  0.00     0.000 C 
HETATM   27  C   LIG     1     -12.944  -0.925   2.657  1.00  0.00     0.002 C 
HETATM   28  C   LIG     1     -12.582   0.185   1.667  1.00  0.00     0.025 C 
ENDBRANCH  16  23
ENDBRANCH  13  14
ENDBRANCH   3  13
BRANCH   1  29
HETATM   29  C   LIG     1      -5.035   2.143  -0.924  1.00  0.00     0.032 A 
HETATM   30  C   LIG     1      -4.596   1.355   0.147  1.00  0.00     0.019 A 
HETATM   31  C   LIG     1      -3.238   1.325   0.470  1.00  0.00     0.037 A 
HETATM   32  C   LIG     1      -2.329   2.072  -0.296  1.00  0.00     0.102 A 
HETATM   33  C   LIG     1      -2.769   2.849  -1.378  1.00  0.00     0.037 A 
HETATM   34  C   LIG     1      -4.128   2.877  -1.696  1.00  0.00     0.019 A 
BRANCH  32  35
HETATM   35  N   LIG     1      -0.900   2.025   0.031  1.00  0.00    -0.116 N 
HETATM   36  O   LIG     1      -0.566   1.404   1.049  1.00  0.00    -0.532 OA
HETATM   37  O   LIG     1      -0.115   2.614  -0.726  1.00  0.00    -0.532 OA
ENDBRANCH  32  35
ENDBRANCH   1  29
TORSDOF 12
