REMARK  12 active torsions:
REMARK  status: ('A' for Active; 'I' for Inactive)
REMARK    1  A    between atoms: C_8  and  C_21 
REMARK    2  A    between atoms: C_12  and  C_17 
REMARK    3  A    between atoms: C_21  and  O_22 
REMARK    4  A    between atoms: C_21  and  C_23 
REMARK    5  A    between atoms: C_23  and  C_24 
REMARK    6  A    between atoms: C_24  and  N_25 
REMARK    7  A    between atoms: N_25  and  C_26 
REMARK    8  A    between atoms: N_25  and  C_30 
REMARK    9  A    between atoms: C_26  and  C_27 
REMARK   10  A    between atoms: C_27  and  C_28 
REMARK   11  A    between atoms: C_30  and  C_31 
REMARK   12  A    between atoms: C_31  and  C_32 
ROOT
HETATM    1 CL   LIG     1       0.027   1.066   4.069  1.00  0.00    -0.084 Cl
HETATM    2  C   LIG     1      -0.753   2.422   3.349  1.00  0.00     0.036 A 
HETATM    3  C   LIG     1      -2.045   2.744   3.715  1.00  0.00     0.048 A 
HETATM    4  C   LIG     1      -2.659   3.844   3.119  1.00  0.00     0.046 A 
HETATM    5 CL   LIG     1      -4.285   4.177   3.632  1.00  0.00    -0.083 Cl
HETATM    6  C   LIG     1      -1.994   4.645   2.146  1.00  0.00    -0.003 A 
HETATM    7  C   LIG     1      -2.611   5.759   1.536  1.00  0.00     0.024 A 
HETATM    8  C   LIG     1      -1.985   6.556   0.565  1.00  0.00    -0.018 A 
HETATM    9  C   LIG     1      -0.646   6.249   0.194  1.00  0.00    -0.016 A 
HETATM   10  C   LIG     1       0.067   7.025  -0.754  1.00  0.00     0.014 A 
HETATM   11  C   LIG     1       1.379   6.738  -1.130  1.00  0.00     0.017 A 
HETATM   12  C   LIG     1       2.040   5.656  -0.567  1.00  0.00     0.048 A 
HETATM   13  C   LIG     1       1.353   4.874   0.374  1.00  0.00     0.029 A 
HETATM   14  C   LIG     1       0.015   5.133   0.787  1.00  0.00    -0.013 A 
HETATM   15  C   LIG     1      -0.667   4.322   1.767  1.00  0.00    -0.011 A 
HETATM   16  C   LIG     1      -0.079   3.190   2.399  1.00  0.00     0.037 A 
ENDROOT
BRANCH   8  17
HETATM   17  C   LIG     1      -2.733   7.742  -0.053  1.00  0.00     0.153 C 
BRANCH  17  18
HETATM   18  O   LIG     1      -2.208   8.971   0.452  1.00  0.00    -0.391 OA
HETATM   19  H   LIG     1      -1.469   8.771   1.054  1.00  0.00     0.210 HD
ENDBRANCH  17  18
BRANCH  17  20
HETATM   20  C   LIG     1      -4.262   7.804   0.131  1.00  0.00     0.064 C 
BRANCH  20  21
HETATM   21  C   LIG     1      -4.865   8.979  -0.651  1.00  0.00     0.237 C 
BRANCH  21  22
HETATM   22  N   LIG     1      -6.378   9.026  -0.453  1.00  0.00    -0.071 N 
HETATM   23  H   LIG     1      -6.561   8.759   0.523  1.00  0.00     0.279 HD
BRANCH  22  24
HETATM   24  C   LIG     1      -7.101   8.022  -1.340  1.00  0.00     0.234 C 
BRANCH  24  25
HETATM   25  C   LIG     1      -8.399   7.576  -0.671  1.00  0.00     0.027 C 
BRANCH  25  26
HETATM   26  C   LIG     1      -9.139   6.558  -1.539  1.00  0.00    -0.003 C 
HETATM   27  C   LIG     1     -10.431   6.098  -0.882  1.00  0.00     0.005 C 
ENDBRANCH  25  26
ENDBRANCH  24  25
ENDBRANCH  22  24
BRANCH  22  28
HETATM   28  C   LIG     1      -6.925  10.438  -0.636  1.00  0.00     0.234 C 
BRANCH  28  29
HETATM   29  C   LIG     1      -6.746  11.240   0.651  1.00  0.00     0.027 C 
BRANCH  29  30
HETATM   30  C   LIG     1      -7.299  12.656   0.492  1.00  0.00    -0.003 C 
HETATM   31  C   LIG     1      -7.131  13.468   1.766  1.00  0.00     0.005 C 
ENDBRANCH  29  30
ENDBRANCH  28  29
ENDBRANCH  22  28
ENDBRANCH  21  22
ENDBRANCH  20  21
ENDBRANCH  17  20
ENDBRANCH   8  17
BRANCH  12  32
HETATM   32  C   LIG     1       3.456   5.310  -0.953  1.00  0.00     0.417 C 
HETATM   33  F   LIG     1       3.537   4.119  -1.608  1.00  0.00    -0.166 F 
HETATM   34  F   LIG     1       4.279   5.201   0.126  1.00  0.00    -0.166 F 
HETATM   35  F   LIG     1       4.035   6.229  -1.774  1.00  0.00    -0.166 F 
ENDBRANCH  12  32
TORSDOF 12
