REMARK  5 active torsions:
REMARK  status: ('A' for Active; 'I' for Inactive)
REMARK    1  A    between atoms: N_2  and  C_6 
REMARK    2  A    between atoms: C_4  and  C_5 
REMARK    3  A    between atoms: C_4  and  C_7 
REMARK    4  A    between atoms: C_4  and  C_8 
REMARK    5  A    between atoms: C_5  and  C_6 
ROOT
HETATM    1  C   LIG     1      -0.334   0.401  -0.101  1.00  0.00     0.072 C 
ENDROOT
BRANCH   1   2
HETATM    2  C   LIG     1      -0.840   1.336   1.026  1.00  0.00     0.043 C 
BRANCH   2   3
HETATM    3  C   LIG     1      -2.356   1.543   1.116  1.00  0.00     0.235 C 
BRANCH   3   4
HETATM    4  N   LIG     1      -2.982   2.060  -0.163  1.00  0.00    -0.079 N 
HETATM    5  C   LIG     1      -2.463   3.406  -0.594  1.00  0.00     0.269 C 
HETATM    6  C   LIG     1      -4.489   2.079  -0.050  1.00  0.00     0.269 C 
HETATM    7  H   LIG     1      -2.776   1.389  -0.913  1.00  0.00     0.278 HD
ENDBRANCH   3   4
ENDBRANCH   2   3
ENDBRANCH   1   2
BRANCH   1   8
HETATM    8  C   LIG     1       1.193   0.369  -0.097  1.00  0.00    -0.048 A 
HETATM    9  C   LIG     1       1.914   0.993  -1.129  1.00  0.00     0.009 A 
HETATM   10  C   LIG     1       3.311   0.972  -1.134  1.00  0.00     0.024 A 
HETATM   11  C   LIG     1       3.999   0.329  -0.107  1.00  0.00     0.034 A 
HETATM   12 CL   LIG     1       5.720   0.302  -0.117  1.00  0.00    -0.084 Cl
HETATM   13  C   LIG     1       3.303  -0.293   0.926  1.00  0.00     0.024 A 
HETATM   14  C   LIG     1       1.906  -0.271   0.932  1.00  0.00     0.009 A 
ENDBRANCH   1   8
BRANCH   1  15
HETATM   15  C   LIG     1      -0.932  -0.999  -0.067  1.00  0.00     0.042 A 
HETATM   16  N   LIG     1      -1.445  -1.442   1.108  1.00  0.00    -0.265 NA
HETATM   17  C   LIG     1      -1.947  -2.698   1.135  1.00  0.00     0.117 A 
HETATM   18  C   LIG     1      -1.973  -3.543   0.040  1.00  0.00     0.019 A 
HETATM   19  C   LIG     1      -1.445  -3.077  -1.156  1.00  0.00     0.003 A 
HETATM   20  C   LIG     1      -0.914  -1.791  -1.216  1.00  0.00     0.028 A 
ENDBRANCH   1  15
TORSDOF 5
