REMARK  6 active torsions:
REMARK  status: ('A' for Active; 'I' for Inactive)
REMARK    1  A    between atoms: O_1  and  C_5 
REMARK    2  A    between atoms: O_2  and  C_10 
REMARK    3  A    between atoms: O_3  and  C_12 
REMARK    4  A    between atoms: N_4  and  C_7 
REMARK    5  A    between atoms: C_5  and  C_6 
REMARK    6  A    between atoms: C_5  and  C_7 
ROOT
HETATM    1  C   LIG     1       0.499  -0.396  -0.115  1.00  0.00    -0.025 A 
HETATM    2  C   LIG     1      -0.166   0.830  -0.142  1.00  0.00     0.049 A 
HETATM    3  C   LIG     1      -0.225  -1.580   0.029  1.00  0.00     0.012 A 
HETATM    4  C   LIG     1      -1.556   0.872  -0.026  1.00  0.00     0.099 A 
HETATM    5  C   LIG     1      -1.615  -1.538   0.145  1.00  0.00     0.040 A 
HETATM    6  C   LIG     1      -2.280  -0.312   0.118  1.00  0.00     0.098 A 
ENDROOT
BRANCH   1   7
HETATM    7  C   LIG     1       1.984  -0.442  -0.238  1.00  0.00     0.176 C 
BRANCH   7   8
HETATM    8  O   LIG     1       2.362   0.060  -1.527  1.00  0.00    -0.389 OA
HETATM    9  H   LIG     1       3.333   0.043  -1.571  1.00  0.00     0.210 HD
ENDBRANCH   7   8
BRANCH   7  10
HETATM   10  C   LIG     1       2.686   0.383   0.859  1.00  0.00     0.265 C 
BRANCH  10  11
HETATM   11  N   LIG     1       4.140   0.331   0.722  1.00  0.00    -0.077 N 
HETATM   12  H   LIG     1       4.456  -0.635   0.800  1.00  0.00     0.274 HD
HETATM   13  H   LIG     1       4.570   0.836   1.497  1.00  0.00     0.274 HD
HETATM   14  H   LIG     1       4.393   0.731  -0.170  1.00  0.00     0.274 HD
ENDBRANCH  10  11
ENDBRANCH   7  10
ENDBRANCH   1   7
BRANCH   4  15
HETATM   15  O   LIG     1      -2.194   2.075  -0.055  1.00  0.00    -0.358 OA
HETATM   16  H   LIG     1      -3.150   1.916   0.037  1.00  0.00     0.217 HD
ENDBRANCH   4  15
BRANCH   6  17
HETATM   17  O   LIG     1      -3.637  -0.283   0.231  1.00  0.00    -0.358 OA
HETATM   18  H   LIG     1      -3.966  -1.194   0.322  1.00  0.00     0.217 HD
ENDBRANCH   6  17
TORSDOF 6
