REMARK  3 active torsions:
REMARK  status: ('A' for Active; 'I' for Inactive)
REMARK    1  A    between atoms: C_2  and  O_3 
REMARK    2  A    between atoms: C_2  and  C_5 
REMARK    3  A    between atoms: C_11  and  O_12 
ROOT
HETATM    1  C   LIG     1      -0.435   1.365   0.293  1.00  0.00     0.145 C 
HETATM    2  C   LIG     1       0.981   0.916   0.732  1.00  0.00     0.204 C 
HETATM    3  N   LIG     1       1.845   2.090   1.145  1.00  0.00    -0.065 N 
HETATM    4  C   LIG     1       1.467   2.860   2.374  1.00  0.00     0.270 C 
HETATM    5  C   LIG     1       2.017   2.832  -0.156  1.00  0.00     0.191 C 
HETATM    6  C   LIG     1       0.713   3.535  -0.550  1.00  0.00     0.065 C 
HETATM    7  C   LIG     1      -0.570   2.860  -0.045  1.00  0.00     0.135 C 
HETATM    8  C   LIG     1       2.358   1.686  -1.121  1.00  0.00     0.035 C 
HETATM    9  C   LIG     1       1.786   0.420  -0.479  1.00  0.00     0.036 C 
HETATM   10  H   LIG     1       2.772   1.701   1.375  1.00  0.00     0.280 HD
ENDROOT
BRANCH   1  11
HETATM   11  C   LIG     1      -1.468   0.912   1.309  1.00  0.00     0.267 C 
HETATM   12  O   LIG     1      -1.215   0.291   2.332  1.00  0.00    -0.265 OA
BRANCH  11  13
HETATM   13  O   LIG     1      -2.719   1.268   0.897  1.00  0.00    -0.326 OA
HETATM   14  C   LIG     1      -3.773   0.851   1.770  1.00  0.00     0.213 C 
ENDBRANCH  11  13
ENDBRANCH   1  11
BRANCH   7  15
HETATM   15  O   LIG     1      -1.003   3.603   1.100  1.00  0.00    -0.395 OA
HETATM   16  H   LIG     1      -1.979   3.561   1.126  1.00  0.00     0.210 HD
ENDBRANCH   7  15
TORSDOF 3
