REMARK  12 active torsions:
REMARK  status: ('A' for Active; 'I' for Inactive)
REMARK    1  A    between atoms: O_1  and  C_10 
REMARK    2  A    between atoms: O_1  and  C_12 
REMARK    3  A    between atoms: O_2  and  C_11 
REMARK    4  A    between atoms: O_2  and  C_13 
REMARK    5  A    between atoms: N_3  and  C_24 
REMARK    6  A    between atoms: N_4  and  C_25 
REMARK    7  A    between atoms: C_7  and  C_8 
REMARK    8  A    between atoms: C_7  and  C_9 
REMARK    9  A    between atoms: C_8  and  C_10 
REMARK   10  A    between atoms: C_9  and  C_11 
REMARK   11  A    between atoms: C_18  and  C_24 
REMARK   12  A    between atoms: C_19  and  C_25 
ROOT
HETATM    1  C   LIG     1      -0.004   1.024  -0.751  1.00  0.00     0.004 C 
ENDROOT
BRANCH   1   2
HETATM    2  C   LIG     1       1.255   1.640  -0.133  1.00  0.00     0.027 C 
BRANCH   2   3
HETATM    3  C   LIG     1       2.532   1.052  -0.722  1.00  0.00     0.175 C 
BRANCH   3   4
HETATM    4  O   LIG     1       3.667   1.642  -0.104  1.00  0.00    -0.351 OA
BRANCH   4   5
HETATM    5  C   LIG     1       4.795   0.868  -0.013  1.00  0.00     0.068 A 
HETATM    6  C   LIG     1       5.054  -0.103  -0.980  1.00  0.00     0.037 A 
HETATM    7  C   LIG     1       6.203  -0.889  -0.890  1.00  0.00     0.018 A 
HETATM    8  C   LIG     1       7.093  -0.704   0.168  1.00  0.00     0.007 A 
HETATM    9  C   LIG     1       6.834   0.268   1.136  1.00  0.00     0.018 A 
HETATM   10  C   LIG     1       5.685   1.054   1.045  1.00  0.00     0.037 A 
BRANCH   8  11
HETATM   11  C   LIG     1       8.291  -1.522   0.263  1.00  0.00     0.102 C 
HETATM   12  N   LIG     1       8.536  -2.439  -0.657  1.00  0.00    -0.385 N 
HETATM   13  H   LIG     1       9.418  -2.906  -0.420  1.00  0.00     0.157 HD
HETATM   14  H   LIG     1       7.954  -2.645  -1.457  1.00  0.00     0.157 HD
BRANCH  11  15
HETATM   15  N   LIG     1       9.199  -1.360   1.307  1.00  0.00    -0.385 N 
HETATM   16  H   LIG     1      10.031  -1.941   1.355  1.00  0.00     0.157 HD
HETATM   17  H   LIG     1       9.089  -0.684   2.052  1.00  0.00     0.157 HD
ENDBRANCH  11  15
ENDBRANCH   8  11
ENDBRANCH   4   5
ENDBRANCH   3   4
ENDBRANCH   2   3
ENDBRANCH   1   2
BRANCH   1  18
HETATM   18  C   LIG     1      -1.270   1.652  -0.170  1.00  0.00     0.027 C 
BRANCH  18  19
HETATM   19  C   LIG     1      -2.527   1.016  -0.747  1.00  0.00     0.175 C 
BRANCH  19  20
HETATM   20  O   LIG     1      -3.664   1.631  -0.158  1.00  0.00    -0.351 OA
BRANCH  20  21
HETATM   21  C   LIG     1      -4.794   0.863  -0.044  1.00  0.00     0.068 A 
HETATM   22  C   LIG     1      -5.690   1.092   0.999  1.00  0.00     0.037 A 
HETATM   23  C   LIG     1      -6.841   0.312   1.114  1.00  0.00     0.018 A 
HETATM   24  C   LIG     1      -7.095  -0.697   0.185  1.00  0.00     0.007 A 
HETATM   25  C   LIG     1      -6.198  -0.926  -0.859  1.00  0.00     0.018 A 
HETATM   26  C   LIG     1      -5.048  -0.146  -0.974  1.00  0.00     0.037 A 
BRANCH  24  27
HETATM   27  C   LIG     1      -8.295  -1.510   0.304  1.00  0.00     0.102 C 
HETATM   28  N   LIG     1      -9.145  -1.289   1.291  1.00  0.00    -0.385 N 
HETATM   29  H   LIG     1      -9.920  -1.956   1.204  1.00  0.00     0.157 HD
HETATM   30  H   LIG     1      -9.049  -0.584   2.008  1.00  0.00     0.157 HD
BRANCH  27  31
HETATM   31  N   LIG     1      -8.576  -2.525  -0.609  1.00  0.00    -0.385 N 
HETATM   32  H   LIG     1      -9.420  -3.081  -0.510  1.00  0.00     0.157 HD
HETATM   33  H   LIG     1      -7.980  -2.761  -1.393  1.00  0.00     0.157 HD
ENDBRANCH  27  31
ENDBRANCH  24  27
ENDBRANCH  20  21
ENDBRANCH  19  20
ENDBRANCH  18  19
ENDBRANCH   1  18
TORSDOF 12
