REMARK  13 active torsions:
REMARK  status: ('A' for Active; 'I' for Inactive)
REMARK    1  A    between atoms: O_1  and  C_3 
REMARK    2  A    between atoms: C_6  and  C_11 
REMARK    3  A    between atoms: C_8  and  O_9 
REMARK    4  A    between atoms: C_11  and  C_12 
REMARK    5  A    between atoms: C_12  and  N_13 
REMARK    6  A    between atoms: N_13  and  C_14 
REMARK    7  A    between atoms: C_14  and  C_15 
REMARK    8  A    between atoms: C_15  and  C_16 
REMARK    9  A    between atoms: C_16  and  C_17 
REMARK   10  A    between atoms: C_17  and  C_20 
REMARK   11  A    between atoms: C_17  and  C_30 
REMARK   12  A    between atoms: C_23  and  O_24 
REMARK   13  A    between atoms: C_26  and  O_27 
ROOT
HETATM    1  C   LIG     1     -12.496  -4.187   1.369  1.00  0.00     0.079 C 
HETATM    2  C   LIG     1     -11.764  -3.289   2.315  1.00  0.00     0.074 C 
HETATM    3  N   LIG     1     -11.165  -2.588   3.020  1.00  0.00    -0.196 NA
ENDROOT
BRANCH   1   4
HETATM    4  C   LIG     1     -11.385  -4.734   0.388  1.00  0.00     0.032 C 
BRANCH   4   5
HETATM    5  C   LIG     1     -10.695  -3.686  -0.516  1.00  0.00     0.029 C 
BRANCH   5   6
HETATM    6  C   LIG     1      -9.318  -3.253  -0.017  1.00  0.00     0.232 C 
BRANCH   6   7
HETATM    7  N   LIG     1      -8.770  -2.239  -0.976  1.00  0.00    -0.075 N 
HETATM    8  H   LIG     1      -8.723  -2.657  -1.917  1.00  0.00     0.277 HD
HETATM    9  H   LIG     1      -9.432  -1.453  -1.043  1.00  0.00     0.277 HD
BRANCH   7  10
HETATM   10  C   LIG     1      -7.418  -1.719  -0.592  1.00  0.00     0.237 C 
BRANCH  10  11
HETATM   11  C   LIG     1      -6.949  -0.700  -1.628  1.00  0.00     0.066 C 
BRANCH  11  12
HETATM   12  C   LIG     1      -5.579  -0.173  -1.283  1.00  0.00    -0.054 A 
HETATM   13  C   LIG     1      -4.433  -0.821  -1.754  1.00  0.00     0.010 A 
HETATM   14  C   LIG     1      -3.162  -0.356  -1.410  1.00  0.00     0.040 A 
HETATM   15  C   LIG     1      -3.018   0.765  -0.585  1.00  0.00     0.101 A 
HETATM   16  C   LIG     1      -4.165   1.427  -0.106  1.00  0.00     0.102 A 
HETATM   17  C   LIG     1      -5.437   0.952  -0.457  1.00  0.00     0.046 A 
BRANCH  15  18
HETATM   18  O   LIG     1      -1.811   1.286  -0.190  1.00  0.00    -0.353 OA
HETATM   19  C   LIG     1      -0.629   0.654  -0.663  1.00  0.00     0.210 C 
ENDBRANCH  15  18
BRANCH  16  20
HETATM   20  O   LIG     1      -3.938   2.522   0.692  1.00  0.00    -0.353 OA
HETATM   21  C   LIG     1      -5.067   3.197   1.229  1.00  0.00     0.210 C 
ENDBRANCH  16  20
ENDBRANCH  11  12
ENDBRANCH  10  11
ENDBRANCH   7  10
ENDBRANCH   6   7
ENDBRANCH   5   6
ENDBRANCH   4   5
ENDBRANCH   1   4
BRANCH   1  22
HETATM   22  C   LIG     1     -13.610  -3.420   0.621  1.00  0.00    -0.032 A 
HETATM   23  C   LIG     1     -14.255  -2.310   1.195  1.00  0.00     0.012 A 
HETATM   24  C   LIG     1     -15.228  -1.582   0.496  1.00  0.00     0.040 A 
HETATM   25  C   LIG     1     -15.601  -1.943  -0.800  1.00  0.00     0.101 A 
HETATM   26  C   LIG     1     -15.015  -3.083  -1.366  1.00  0.00     0.102 A 
HETATM   27  C   LIG     1     -14.031  -3.798  -0.665  1.00  0.00     0.048 A 
BRANCH  25  28
HETATM   28  O   LIG     1     -16.485  -1.239  -1.571  1.00  0.00    -0.353 OA
HETATM   29  C   LIG     1     -17.067  -0.066  -1.015  1.00  0.00     0.210 C 
ENDBRANCH  25  28
BRANCH  26  30
HETATM   30  O   LIG     1     -15.260  -3.567  -2.627  1.00  0.00    -0.353 OA
HETATM   31  C   LIG     1     -16.638  -3.634  -2.983  1.00  0.00     0.210 C 
ENDBRANCH  26  30
ENDBRANCH   1  22
BRANCH   1  32
HETATM   32  C   LIG     1     -13.090  -5.385   2.221  1.00  0.00     0.004 C 
HETATM   33  C   LIG     1     -13.711  -6.523   1.395  1.00  0.00     0.011 C 
HETATM   34  C   LIG     1     -14.118  -4.950   3.282  1.00  0.00     0.011 C 
ENDBRANCH   1  32
TORSDOF 13
