REMARK  2 active torsions:
REMARK  status: ('A' for Active; 'I' for Inactive)
REMARK    1  A    between atoms: C_15  and  C_16 
REMARK    2  A    between atoms: C_16  and  N_17 
ROOT
HETATM    1  O   LIG     1       0.194   0.332  -0.732  1.00  0.00    -0.292 OA
HETATM    2  C   LIG     1       0.165   1.520  -0.421  1.00  0.00     0.168 C 
HETATM    3  C   LIG     1      -1.089   2.231  -0.214  1.00  0.00     0.045 A 
HETATM    4  C   LIG     1      -1.111   3.580   0.081  1.00  0.00     0.026 A 
HETATM    5  N   LIG     1      -2.418   3.962   0.244  1.00  0.00    -0.353 N 
HETATM    6  C   LIG     1      -2.868   5.290   0.601  1.00  0.00     0.156 C 
HETATM    7  C   LIG     1      -3.254   2.882   0.012  1.00  0.00     0.045 A 
HETATM    8  C   LIG     1      -4.655   2.779   0.029  1.00  0.00     0.030 A 
HETATM    9  C   LIG     1      -5.230   1.532  -0.241  1.00  0.00     0.002 A 
HETATM   10  C   LIG     1      -4.437   0.424  -0.520  1.00  0.00     0.001 A 
HETATM   11  C   LIG     1      -3.043   0.534  -0.538  1.00  0.00     0.015 A 
HETATM   12  C   LIG     1      -2.437   1.780  -0.271  1.00  0.00     0.007 A 
HETATM   13  C   LIG     1       0.084   4.459   0.206  1.00  0.00     0.059 C 
HETATM   14  C   LIG     1       1.266   3.812  -0.535  1.00  0.00     0.020 C 
HETATM   15  C   LIG     1       1.453   2.322  -0.160  1.00  0.00     0.079 C 
ENDROOT
BRANCH  15  16
HETATM   16  C   LIG     1       2.615   1.674  -0.929  1.00  0.00     0.142 C 
BRANCH  16  17
HETATM   17  N   LIG     1       3.918   2.222  -0.599  1.00  0.00    -0.343 N 
HETATM   18  C   LIG     1       4.586   3.161  -1.338  1.00  0.00     0.111 A 
HETATM   19  C   LIG     1       5.753   3.390  -0.652  1.00  0.00     0.136 A 
HETATM   20  N   LIG     1       5.818   2.609   0.471  1.00  0.00    -0.246 NA
HETATM   21  C   LIG     1       4.707   1.897   0.481  1.00  0.00     0.101 A 
HETATM   22  C   LIG     1       4.347   0.881   1.501  1.00  0.00     0.091 C 
ENDBRANCH  16  17
ENDBRANCH  15  16
TORSDOF 2
