REMARK  1 active torsions:
REMARK  status: ('A' for Active; 'I' for Inactive)
REMARK    1  A    between atoms: N_1  and  C_2 
ROOT
HETATM    1  C   LIG     1       1.277  -0.003   0.005  1.00  0.00     0.124 C 
HETATM    2  C   LIG     1      -0.787  -0.758  -1.244  1.00  0.00    -0.012 C 
HETATM    3  C   LIG     1      -0.796  -0.696   1.276  1.00  0.00    -0.012 C 
HETATM    4  C   LIG     1      -0.788   1.456  -0.037  1.00  0.00    -0.012 C 
HETATM    5  C   LIG     1       0.753  -0.758  -1.236  1.00  0.00     0.043 C 
HETATM    6  C   LIG     1       0.744  -0.697   1.278  1.00  0.00     0.043 C 
HETATM    7  C   LIG     1       0.752   1.450  -0.032  1.00  0.00     0.043 C 
HETATM    8  C   LIG     1      -1.301  -1.446   0.032  1.00  0.00     0.009 C 
HETATM    9  C   LIG     1      -1.292   0.695  -1.275  1.00  0.00     0.009 C 
HETATM   10  C   LIG     1      -1.301   0.756   1.232  1.00  0.00     0.009 C 
ENDROOT
BRANCH   1  11
HETATM   11  N   LIG     1       2.738   0.000   0.000  1.00  0.00    -0.070 N 
HETATM   12  H   LIG     1       3.087   0.523   0.803  1.00  0.00     0.275 HD
HETATM   13  H   LIG     1       3.082   0.488  -0.826  1.00  0.00     0.275 HD
HETATM   14  H   LIG     1       3.049  -0.961   0.019  1.00  0.00     0.275 HD
ENDBRANCH   1  11
TORSDOF 1
