Desmopressin
 OpenBabel02121510022D
Created with ChemWriter - http://chemwriter.com
 74 77  0  0  1  0  0  0  0  0999 V2000
    0.0000   -7.8650    0.0000 N   0  0  0  0  0  0  0  0  0  0  0  0
    0.6740   -7.4600    0.0000 C   0  0  0  0  0  0  0  0  0  0  0  0
    1.3930   -7.8650    0.0000 C   0  0  0  0  0  0  0  0  0  0  0  0
    2.1120   -7.4600    0.0000 N   0  0  0  0  0  0  0  0  0  0  0  0
    2.8310   -7.8650    0.0000 C   0  0  0  0  0  0  0  0  0  0  0  0
    3.5500   -7.4600    0.0000 C   0  0  1  0  0  0  0  0  0  0  0  0
    4.2690   -7.8650    0.0000 N   0  0  0  0  0  0  0  0  0  0  0  0
    4.9440   -7.4600    0.0000 C   0  0  0  0  0  0  0  0  0  0  0  0
    5.6620   -7.8650    0.0000 O   0  0  0  0  0  0  0  0  0  0  0  0
    0.6740   -6.6510    0.0000 O   0  0  0  0  0  0  0  0  0  0  0  0
    2.8310   -8.7180    0.0000 O   0  0  0  0  0  0  0  0  0  0  0  0
    3.5500   -6.6510    0.0000 C   0  0  0  0  0  0  0  0  0  0  0  0
    2.8310   -6.2470    0.0000 C   0  0  0  0  0  0  0  0  0  0  0  0
    2.8310   -5.4380    0.0000 C   0  0  0  0  0  0  0  0  0  0  0  0
    2.1120   -5.0330    0.0000 N   0  0  0  0  0  0  0  0  0  0  0  0
    4.9440   -6.6510    0.0000 C   0  0  2  0  0  0  0  0  0  0  0  0
    4.3140   -6.1570    0.0000 C   0  0  0  0  0  0  0  0  0  0  0  0
    5.6180   -6.1570    0.0000 N   0  0  0  0  0  0  0  0  0  0  0  0
    4.5390   -5.3930    0.0000 C   0  0  0  0  0  0  0  0  0  0  0  0
    5.3480   -5.3930    0.0000 C   0  0  0  0  0  0  0  0  0  0  0  0
    6.3370   -6.5610    0.0000 C   0  0  0  0  0  0  0  0  0  0  0  0
    7.0560   -6.1570    0.0000 C   0  0  1  0  0  0  0  0  0  0  0  0
    7.7750   -6.5610    0.0000 N   0  0  0  0  0  0  0  0  0  0  0  0
    8.4490   -6.1570    0.0000 C   0  0  0  0  0  0  0  0  0  0  0  0
    9.1680   -6.5610    0.0000 C   0  0  1  0  0  0  0  0  0  0  0  0
    9.8870   -6.1570    0.0000 N   0  0  0  0  0  0  0  0  0  0  0  0
    6.3370   -7.4150    0.0000 O   0  0  0  0  0  0  0  0  0  0  0  0
    7.0560   -5.3480    0.0000 C   0  0  0  0  0  0  0  0  0  0  0  0
    6.3370   -4.9440    0.0000 S   0  0  0  0  0  0  0  0  0  0  0  0
    6.3370   -4.1340    0.0000 S   0  0  0  0  0  0  0  0  0  0  0  0
    8.4490   -5.3480    0.0000 O   0  0  0  0  0  0  0  0  0  0  0  0
    9.1680   -7.4150    0.0000 C   0  0  0  0  0  0  0  0  0  0  0  0
    9.8870   -7.8200    0.0000 C   0  0  0  0  0  0  0  0  0  0  0  0
    9.8870   -8.6290    0.0000 O   0  0  0  0  0  0  0  0  0  0  0  0
   10.6060   -7.4150    0.0000 N   0  0  0  0  0  0  0  0  0  0  0  0
    9.8870   -5.3480    0.0000 C   0  0  0  0  0  0  0  0  0  0  0  0
   10.6060   -4.9440    0.0000 C   0  0  2  0  0  0  0  0  0  0  0  0
    9.1680   -4.9440    0.0000 O   0  0  0  0  0  0  0  0  0  0  0  0
   11.3250   -5.3480    0.0000 C   0  0  0  0  0  0  0  0  0  0  0  0
   12.0440   -4.9440    0.0000 C   0  0  0  0  0  0  0  0  0  0  0  0
   12.7630   -5.3480    0.0000 C   0  0  0  0  0  0  0  0  0  0  0  0
   13.4820   -4.9440    0.0000 N   0  0  0  0  0  0  0  0  0  0  0  0
   12.7630   -6.2020    0.0000 O   0  0  0  0  0  0  0  0  0  0  0  0
   10.6060   -4.1340    0.0000 N   0  0  0  0  0  0  0  0  0  0  0  0
   11.3250   -2.8760    0.0000 C   0  0  0  0  0  0  0  0  0  0  0  0
   11.3250   -3.7300    0.0000 C   0  0  0  0  0  0  0  0  0  0  0  0
   10.6060   -2.4720    0.0000 C   0  0  0  0  0  0  0  0  0  0  0  0
    9.8870   -2.8760    0.0000 C   0  0  1  0  0  0  0  0  0  0  0  0
    9.8870   -3.7300    0.0000 C   0  0  0  0  0  0  0  0  0  0  0  0
   12.7630   -2.8760    0.0000 C   0  0  0  0  0  0  0  0  0  0  0  0
   12.7630   -3.7300    0.0000 C   0  0  0  0  0  0  0  0  0  0  0  0
   12.0440   -2.4720    0.0000 C   0  0  0  0  0  0  0  0  0  0  0  0
   12.0440   -4.1340    0.0000 C   0  0  0  0  0  0  0  0  0  0  0  0
    7.0560   -2.8760    0.0000 N   0  0  0  0  0  0  0  0  0  0  0  0
    6.3370   -2.4720    0.0000 C   0  0  0  0  0  0  0  0  0  0  0  0
    5.6180   -2.8760    0.0000 C   0  0  0  0  0  0  0  0  0  0  0  0
    5.6180   -3.7300    0.0000 C   0  0  0  0  0  0  0  0  0  0  0  0
    8.4490   -2.8760    0.0000 C   0  0  0  0  0  0  0  0  0  0  0  0
    8.4490   -3.7300    0.0000 O   0  0  0  0  0  0  0  0  0  0  0  0
    7.7750   -2.4720    0.0000 C   0  0  2  0  0  0  0  0  0  0  0  0
    9.1680   -2.4720    0.0000 N   0  0  0  0  0  0  0  0  0  0  0  0
    9.1680   -4.1340    0.0000 O   0  0  0  0  0  0  0  0  0  0  0  0
    7.7750   -1.6630    0.0000 C   0  0  0  0  0  0  0  0  0  0  0  0
    9.1680   -1.6630    0.0000 C   0  0  0  0  0  0  0  0  0  0  0  0
    8.4490   -1.2580    0.0000 C   0  0  0  0  0  0  0  0  0  0  0  0
    9.8870   -1.2580    0.0000 C   0  0  0  0  0  0  0  0  0  0  0  0
    9.8870   -0.4040    0.0000 C   0  0  0  0  0  0  0  0  0  0  0  0
    8.4490   -0.4040    0.0000 C   0  0  0  0  0  0  0  0  0  0  0  0
    9.1680    0.0000    0.0000 C   0  0  0  0  0  0  0  0  0  0  0  0
    6.3370   -1.6630    0.0000 O   0  0  0  0  0  0  0  0  0  0  0  0
   10.6060    0.0000    0.0000 O   0  0  0  0  0  0  0  0  0  0  0  0
    1.3930   -5.4380    0.0000 C   0  0  0  0  0  0  0  0  0  0  0  0
    1.3930   -6.2470    0.0000 N   0  0  0  0  0  0  0  0  0  0  0  0
    0.6740   -5.0330    0.0000 N   0  0  0  0  0  0  0  0  0  0  0  0
  1  2  1  0  0  0  0
  2  3  1  0  0  0  0
  2 10  2  0  0  0  0
  3  4  1  0  0  0  0
  4  5  1  0  0  0  0
  5 11  2  0  0  0  0
  6  5  1  6  0  0  0
  6  7  1  0  0  0  0
  6 12  1  0  0  0  0
  7  8  1  0  0  0  0
  8  9  2  0  0  0  0
 12 13  1  0  0  0  0
 13 14  1  0  0  0  0
 14 15  1  0  0  0  0
 15 72  1  0  0  0  0
 16  8  1  6  0  0  0
 16 17  1  0  0  0  0
 16 18  1  0  0  0  0
 17 19  1  0  0  0  0
 18 20  1  0  0  0  0
 18 21  1  0  0  0  0
 19 20  1  0  0  0  0
 21 27  2  0  0  0  0
 22 21  1  6  0  0  0
 22 23  1  0  0  0  0
 22 28  1  0  0  0  0
 23 24  1  0  0  0  0
 24 25  1  0  0  0  0
 24 31  2  0  0  0  0
 25 26  1  0  0  0  0
 25 32  1  1  0  0  0
 26 36  1  0  0  0  0
 28 29  1  0  0  0  0
 29 30  1  0  0  0  0
 30 57  1  0  0  0  0
 32 33  1  0  0  0  0
 33 34  2  0  0  0  0
 33 35  1  0  0  0  0
 36 37  1  0  0  0  0
 36 38  2  0  0  0  0
 37 39  1  1  0  0  0
 37 44  1  0  0  0  0
 39 40  1  0  0  0  0
 40 41  1  0  0  0  0
 41 42  1  0  0  0  0
 41 43  2  0  0  0  0
 44 49  1  0  0  0  0
 45 46  1  0  0  0  0
 45 47  1  0  0  0  0
 45 52  2  0  0  0  0
 46 53  2  0  0  0  0
 48 47  1  1  0  0  0
 48 49  1  0  0  0  0
 48 61  1  0  0  0  0
 49 62  2  0  0  0  0
 50 51  2  0  0  0  0
 50 52  1  0  0  0  0
 51 53  1  0  0  0  0
 54 55  1  0  0  0  0
 54 60  1  0  0  0  0
 55 56  1  0  0  0  0
 55 70  2  0  0  0  0
 56 57  1  0  0  0  0
 58 59  2  0  0  0  0
 58 60  1  0  0  0  0
 58 61  1  0  0  0  0
 60 63  1  1  0  0  0
 63 65  1  0  0  0  0
 64 65  2  0  0  0  0
 64 66  1  0  0  0  0
 65 68  1  0  0  0  0
 66 67  2  0  0  0  0
 67 69  1  0  0  0  0
 67 71  1  0  0  0  0
 68 69  2  0  0  0  0
 72 73  2  0  0  0  0
 72 74  1  0  0  0  0
M  END
>  <DATABASE_ID>
DB00035

>  <DATABASE_NAME>
drugbank

>  <SMILES>
S1SCCC(=O)N[C@@H](Cc2ccc(O)cc2)C(=O)N[C@@H](Cc2ccccc2)C(=O)N[C@@H](CCC(=O)N)C(=O)N[C@@H](CC(=O)N)C(=O)N[C@@H](C1)C(=O)N1CCC[C@H]1C(=O)N[C@@H](CCCNC(N)=N)C(=O)NCC(=O)N

>  <INCHI_IDENTIFIER>
InChI=1S/C46H64N14O12S2/c47-35(62)15-14-29-40(67)58-32(22-36(48)63)43(70)59-33(45(72)60-18-5-9-34(60)44(71)56-28(8-4-17-52-46(50)51)39(66)53-23-37(49)64)24-74-73-19-16-38(65)54-30(21-26-10-12-27(61)13-11-26)41(68)57-31(42(69)55-29)20-25-6-2-1-3-7-25/h1-3,6-7,10-13,28-34,61H,4-5,8-9,14-24H2,(H2,47,62)(H2,48,63)(H2,49,64)(H,53,66)(H,54,65)(H,55,69)(H,56,71)(H,57,68)(H,58,67)(H,59,70)(H4,50,51,52)/t28-,29-,30-,31-,32-,33-,34-/m0/s1

>  <INCHI_KEY>
InChIKey=NFLWUMRGJYTJIN-NXBWRCJVSA-N

>  <JCHEM_ACCEPTOR_COUNT>
15

>  <JCHEM_AVERAGE_POLARIZABILITY>
106.19431

>  <JCHEM_BIOAVAILABILITY>
0

>  <JCHEM_DONOR_COUNT>
14

>  <JCHEM_EXACT_MASS>
1068.427

>  <JCHEM_FORMAL_CHARGE>
0

>  <JCHEM_FORMULA>
C46H64N14O12S2

>  <JCHEM_GHOSE_FILTER>
0

>  <JCHEM_IUPAC>
(2S)-2-{[(2S)-1-{[(4R,7S,10S,13S,16S)-13-benzyl-10-(2-carbamoylethyl)-7-(carbamoylmethyl)-16-[(4-hydroxyphenyl)methyl]-6,9,12,15,18-pentaoxo-1,2-dithia-5,8,11,14,17-pentaazacycloicosan-4-yl]carbonyl}pyrrolidin-2-yl]formamido}-5-carbamimidamido-N-(carbamoylmethyl)pentanamide

>  <ALOGPS_LOGP>
-1.04

>  <JCHEM_LOGP>
-6.1282549

>  <ALOGPS_LOGS>
-3.99

>  <JCHEM_MASS>
1069.217

>  <JCHEM_MDDR_LIKE_RULE>
1

>  <JCHEM_NUMBER_OF_RINGS>
4

>  <JCHEM_PHYSIOLOGICAL_CHARGE>
1

>  <JCHEM_PKA>
11.344259

>  <JCHEM_PKA_STRONGEST_ACIDIC>
9.4969807

>  <JCHEM_PKA_STRONGEST_BASIC>
11.77194

>  <JCHEM_POLAR_SURFACE_AREA>
435.41

>  <JCHEM_REFRACTIVITY>
279.77991

>  <JCHEM_ROTATABLE_BOND_COUNT>
19

>  <JCHEM_RULE_OF_FIVE>
0

>  <ALOGPS_SOLUBILITY>
1.10e-01 g/l

>  <JCHEM_TRADITIONAL_IUPAC>
desmopressin

>  <JCHEM_VEBER_RULE>
0

>  <DRUGBANK_ID>
DB00035

>  <DRUG_GROUPS>
approved

>  <GENERIC_NAME>
Desmopressin

>  <SYNONYMS>
1-(3-mercaptopropionic acid)-8-D-arginine-vasopressin; 1-deamino-8-D-arginine vasopressin; 1-Desamino-8-D-arginine vasopressin; DDAVP; Desmopresina; Desmopressine; Desmopressinum

>  <BRANDS>
Adiuretin; DDAVP; DesmoMelt; Minirin; Stimate

>  <SALTS>
Desmopressin acetate

$$$$
Cyclosporine
 OpenBabel02121510022D

 85 85  0  0  1  0  0  0  0  0999 V2000
   18.4220   -8.3230    0.0000 C   0  0  3  0  0  0  0  0  0  0  0  0
   17.7080   -8.7360    0.0000 N   0  0  0  0  0  0  0  0  0  0  0  0
   19.1360   -8.7360    0.0000 C   0  0  0  0  0  0  0  0  0  0  0  0
   18.4220   -7.5010    0.0000 C   0  0  3  0  0  0  0  0  0  0  0  0
   16.9940   -8.3230    0.0000 C   0  0  0  0  0  0  0  0  0  0  0  0
   17.7080   -9.5590    0.0000 C   0  0  0  0  0  0  0  0  0  0  0  0
   19.8500   -8.3230    0.0000 N   0  0  0  0  0  0  0  0  0  0  0  0
   19.1360   -9.5590    0.0000 O   0  0  0  0  0  0  0  0  0  0  0  0
   19.1360   -7.0880    0.0000 C   0  0  3  0  0  0  0  0  0  0  0  0
   17.7080   -7.0880    0.0000 O   0  0  0  0  0  0  0  0  0  0  0  0
   16.2800   -8.7360    0.0000 C   0  0  3  0  0  0  0  0  0  0  0  0
   16.9940   -7.5010    0.0000 O   0  0  0  0  0  0  0  0  0  0  0  0
   20.5640   -8.7360    0.0000 C   0  0  3  0  0  0  0  0  0  0  0  0
   19.8500   -7.5010    0.0000 C   0  0  0  0  0  0  0  0  0  0  0  0
   15.5660   -8.3230    0.0000 N   0  0  0  0  0  0  0  0  0  0  0  0
   16.3220   -9.8440    0.0000 C   0  0  0  0  0  0  0  0  0  0  0  0
   21.2780   -8.3230    0.0000 C   0  0  0  0  0  0  0  0  0  0  0  0
   20.5640   -9.5590    0.0000 C   0  0  0  0  0  0  0  0  0  0  0  0
   14.8520   -8.7360    0.0000 C   0  0  0  0  0  0  0  0  0  0  0  0
   15.5660   -7.5010    0.0000 C   0  0  0  0  0  0  0  0  0  0  0  0
   15.6080  -10.2570    0.0000 C   0  0  0  0  0  0  0  0  0  0  0  0
   17.0360  -10.2570    0.0000 C   0  0  0  0  0  0  0  0  0  0  0  0
   21.9920   -8.7360    0.0000 N   0  0  0  0  0  0  0  0  0  0  0  0
   21.2780   -7.5010    0.0000 O   0  0  0  0  0  0  0  0  0  0  0  0
   14.1380   -8.3230    0.0000 C   0  0  3  0  0  0  0  0  0  0  0  0
   14.8520   -9.5590    0.0000 O   0  0  0  0  0  0  0  0  0  0  0  0
   21.9920   -9.5590    0.0000 C   0  0  0  0  0  0  0  0  0  0  0  0
   22.7070   -8.3230    0.0000 C   0  0  0  0  0  0  0  0  0  0  0  0
   13.4240   -8.7360    0.0000 N   0  0  0  0  0  0  0  0  0  0  0  0
   14.1380   -7.5010    0.0000 C   0  0  0  0  0  0  0  0  0  0  0  0
   22.7070   -9.9720    0.0000 C   0  0  0  0  0  0  0  0  0  0  0  0
   13.4240  -10.9580    0.0000 C   0  0  0  0  0  0  0  0  0  0  0  0
   12.5970   -8.7360    0.0000 C   0  0  0  0  0  0  0  0  0  0  0  0
   13.4240   -7.0880    0.0000 C   0  0  0  0  0  0  0  0  0  0  0  0
   22.7030  -11.0320    0.0000 N   0  0  0  0  0  0  0  0  0  0  0  0
   23.4210   -9.5590    0.0000 O   0  0  0  0  0  0  0  0  0  0  0  0
   12.7100  -12.1500    0.0000 C   0  0  3  0  0  0  0  0  0  0  0  0
   13.4240   -6.2610    0.0000 C   0  0  0  0  0  0  0  0  0  0  0  0
   12.7100   -7.5010    0.0000 C   0  0  0  0  0  0  0  0  0  0  0  0
   22.7070  -12.9720    0.0000 C   0  0  3  0  0  0  0  0  0  0  0  0
   23.5170  -11.0330    0.0000 C   0  0  0  0  0  0  0  0  0  0  0  0
   12.7100  -12.9720    0.0000 N   0  0  0  0  0  0  0  0  0  0  0  0
   11.9950  -11.7370    0.0000 C   0  0  0  0  0  0  0  0  0  0  0  0
   21.9920  -13.3860    0.0000 C   0  0  0  0  0  0  0  0  0  0  0  0
   23.4210  -13.3860    0.0000 C   0  0  0  0  0  0  0  0  0  0  0  0
   13.4240  -13.3860    0.0000 C   0  0  0  0  0  0  0  0  0  0  0  0
   11.9950  -13.3860    0.0000 C   0  0  0  0  0  0  0  0  0  0  0  0
   11.2810  -12.1500    0.0000 C   0  0  0  0  0  0  0  0  0  0  0  0
   21.2780  -12.9720    0.0000 N   0  0  0  0  0  0  0  0  0  0  0  0
   21.9920  -14.2080    0.0000 O   0  0  0  0  0  0  0  0  0  0  0  0
   24.1350  -12.9720    0.0000 C   0  0  0  0  0  0  0  0  0  0  0  0
   14.1380  -12.9720    0.0000 C   0  0  3  0  0  0  0  0  0  0  0  0
   13.4240  -14.2080    0.0000 O   0  0  0  0  0  0  0  0  0  0  0  0
   10.5670  -11.7370    0.0000 C   0  0  0  0  0  0  0  0  0  0  0  0
   20.5640  -13.3860    0.0000 C   0  0  3  0  0  0  0  0  0  0  0  0
   24.8490  -13.3860    0.0000 C   0  0  0  0  0  0  0  0  0  0  0  0
   24.1350  -12.1500    0.0000 C   0  0  0  0  0  0  0  0  0  0  0  0
   14.8520  -13.3860    0.0000 N   0  0  0  0  0  0  0  0  0  0  0  0
   14.1380  -12.1960    0.0000 C   0  0  0  0  0  0  0  0  0  0  0  0
   19.8500  -12.9720    0.0000 C   0  0  0  0  0  0  0  0  0  0  0  0
   20.5800  -14.4570    0.0000 C   0  0  0  0  0  0  0  0  0  0  0  0
   15.5660  -12.9720    0.0000 C   0  0  0  0  0  0  0  0  0  0  0  0
   19.1360  -13.3860    0.0000 N   0  0  0  0  0  0  0  0  0  0  0  0
   19.8500  -12.1500    0.0000 O   0  0  0  0  0  0  0  0  0  0  0  0
   19.8180  -15.0870    0.0000 C   0  0  0  0  0  0  0  0  0  0  0  0
   21.3060  -15.0220    0.0000 C   0  0  0  0  0  0  0  0  0  0  0  0
   16.2800  -13.3860    0.0000 C   0  0  3  0  0  0  0  0  0  0  0  0
   15.5660  -12.1500    0.0000 O   0  0  0  0  0  0  0  0  0  0  0  0
   18.4220  -12.9720    0.0000 C   0  0  3  0  0  0  0  0  0  0  0  0
   19.1360  -14.2080    0.0000 C   0  0  0  0  0  0  0  0  0  0  0  0
   16.9940  -12.9720    0.0000 N   0  0  0  0  0  0  0  0  0  0  0  0
   16.2800  -14.2080    0.0000 C   0  0  0  0  0  0  0  0  0  0  0  0
   17.7080  -13.3860    0.0000 C   0  0  0  0  0  0  0  0  0  0  0  0
   18.4220  -11.4300    0.0000 C   0  0  0  0  0  0  0  0  0  0  0  0
   17.7080  -14.2080    0.0000 O   0  0  0  0  0  0  0  0  0  0  0  0
   19.1360  -11.0170    0.0000 C   0  0  0  0  0  0  0  0  0  0  0  0
   19.1320  -10.1900    0.0000 C   0  0  0  0  0  0  0  0  0  0  0  0
   19.8500  -11.4260    0.0000 C   0  0  0  0  0  0  0  0  0  0  0  0
   21.3580  -10.0160    0.0000 C   0  0  0  0  0  0  0  0  0  0  0  0
   11.2810  -13.0490    0.0000 C   0  0  0  0  0  0  0  0  0  0  0  0
   14.2040  -11.4090    0.0000 O   0  0  0  0  0  0  0  0  0  0  0  0
   19.1360   -6.1810    0.0000 C   0  0  0  0  0  0  0  0  0  0  0  0
   19.9320   -5.7220    0.0000 C   0  0  0  0  0  0  0  0  0  0  0  0
   20.7150   -6.1740    0.0000 C   0  0  0  0  0  0  0  0  0  0  0  0
   21.4910   -5.7260    0.0000 C   0  0  0  0  0  0  0  0  0  0  0  0
  1  2  1  0  0  0  0
  1  3  1  0  0  0  0
  1  4  1  0  0  0  0
  2  5  1  0  0  0  0
  2  6  1  0  0  0  0
  3  7  1  0  0  0  0
  3  8  2  0  0  0  0
  4  9  1  0  0  0  0
  4 10  1  0  0  0  0
  5 11  1  0  0  0  0
  5 12  2  0  0  0  0
  7 13  1  0  0  0  0
  9 14  1  0  0  0  0
  9 82  1  0  0  0  0
 11 15  1  0  0  0  0
 11 16  1  0  0  0  0
 13 17  1  0  0  0  0
 13 18  1  0  0  0  0
 15 19  1  0  0  0  0
 15 20  1  0  0  0  0
 16 21  1  0  0  0  0
 16 22  1  0  0  0  0
 17 23  1  0  0  0  0
 17 24  2  0  0  0  0
 18 79  1  0  0  0  0
 19 25  1  0  0  0  0
 19 26  2  0  0  0  0
 23 27  1  0  0  0  0
 23 28  1  0  0  0  0
 25 29  1  0  0  0  0
 25 30  1  0  0  0  0
 27 31  1  0  0  0  0
 29 32  1  0  0  0  0
 29 33  1  0  0  0  0
 30 34  1  0  0  0  0
 31 35  1  0  0  0  0
 31 36  2  0  0  0  0
 32 37  1  0  0  0  0
 32 81  2  0  0  0  0
 34 38  1  0  0  0  0
 34 39  1  0  0  0  0
 35 40  1  0  0  0  0
 35 41  1  0  0  0  0
 37 42  1  0  0  0  0
 37 43  1  0  0  0  0
 40 44  1  0  0  0  0
 40 45  1  0  0  0  0
 42 46  1  0  0  0  0
 42 47  1  0  0  0  0
 43 48  1  0  0  0  0
 44 49  1  0  0  0  0
 44 50  2  0  0  0  0
 45 51  1  0  0  0  0
 46 52  1  0  0  0  0
 46 53  2  0  0  0  0
 48 54  1  0  0  0  0
 48 80  1  0  0  0  0
 49 55  1  0  0  0  0
 51 56  1  0  0  0  0
 51 57  1  0  0  0  0
 52 58  1  0  0  0  0
 52 59  1  0  0  0  0
 55 60  1  0  0  0  0
 55 61  1  0  0  0  0
 58 62  1  0  0  0  0
 60 63  1  0  0  0  0
 60 64  2  0  0  0  0
 61 65  1  0  0  0  0
 61 66  1  0  0  0  0
 62 67  1  0  0  0  0
 62 68  2  0  0  0  0
 63 69  1  0  0  0  0
 63 70  1  0  0  0  0
 67 71  1  0  0  0  0
 67 72  1  0  0  0  0
 69 73  1  0  0  0  0
 69 74  1  0  0  0  0
 71 73  1  0  0  0  0
 73 75  2  0  0  0  0
 74 76  1  0  0  0  0
 76 77  1  0  0  0  0
 76 78  1  0  0  0  0
 82 83  1  0  0  0  0
 83 84  2  0  0  0  0
 84 85  1  0  0  0  0
M  END
>  <DATABASE_ID>
DB00091

>  <DATABASE_NAME>
drugbank

>  <SMILES>
O=C1N(C)C(C(O)C(C\C=C\C)C)C(=O)NC(CC)C(=O)N(CC(=O)N(C)C(CC(C)C)C(=O)NC(C(C)C)C(=O)N(C)C(CC(C)C)C(=O)NC(C)C(=O)NC(C)C(=O)N(C)C(CC(C)C)C(=O)N(C)C(CC(C)C)C(=O)N(C)C1C(C)C)C

>  <INCHI_IDENTIFIER>
InChI=1/C62H111N11O12/c1-25-27-28-40(15)52(75)51-56(79)65-43(26-2)58(81)67(18)33-48(74)68(19)44(29-34(3)4)55(78)66-49(38(11)12)61(84)69(20)45(30-35(5)6)54(77)63-41(16)53(76)64-42(17)57(80)70(21)46(31-36(7)8)59(82)71(22)47(32-37(9)10)60(83)72(23)50(39(13)14)62(85)73(51)24/h25,27,34-47,49-52,75H,26,28-33H2,1-24H3,(H,63,77)(H,64,76)(H,65,79)(H,66,78)/b27-25+

>  <INCHI_KEY>
InChIKey=PMATZTZNYRCHOR-IMVLJIQENA-N

>  <JCHEM_ACCEPTOR_COUNT>
12

>  <JCHEM_AVERAGE_POLARIZABILITY>
133.2437

>  <JCHEM_BIOAVAILABILITY>
0

>  <JCHEM_DONOR_COUNT>
5

>  <JCHEM_EXACT_MASS>
1201.8413

>  <JCHEM_FORMAL_CHARGE>
0

>  <JCHEM_FORMULA>
C62H111N11O12

>  <JCHEM_GHOSE_FILTER>
0

>  <JCHEM_IUPAC>
30-ethyl-33-[(4E)-1-hydroxy-2-methylhex-4-en-1-yl]-1,4,7,10,12,15,19,25,28-nonamethyl-6,9,18,24-tetrakis(2-methylpropyl)-3,21-bis(propan-2-yl)-1,4,7,10,13,16,19,22,25,28,31-undecaazacyclotritriacontan-2,5,8,11,14,17,20,23,26,29,32-undecone

>  <ALOGPS_LOGP>
4.1199999

>  <JCHEM_LOGP>
3.6381574

>  <ALOGPS_LOGS>
-5.0999999

>  <JCHEM_MASS>
1202.6112

>  <JCHEM_MDDR_LIKE_RULE>
0

>  <JCHEM_NUMBER_OF_RINGS>
1

>  <JCHEM_PHYSIOLOGICAL_CHARGE>
0

>  <JCHEM_PKA>
12.234113

>  <JCHEM_PKA_STRONGEST_ACIDIC>
11.825702

>  <JCHEM_PKA_STRONGEST_BASIC>
-2.393713

>  <JCHEM_POLAR_SURFACE_AREA>
278.79999

>  <JCHEM_REFRACTIVITY>
327.14169

>  <JCHEM_ROTATABLE_BOND_COUNT>
15

>  <JCHEM_RULE_OF_FIVE>
0

>  <ALOGPS_SOLUBILITY>
9.52e-03 g/l

>  <JCHEM_TRADITIONAL_IUPAC>
cyclosporin A

>  <JCHEM_VEBER_RULE>
0

>  <DRUGBANK_ID>
DB00091

>  <DRUG_GROUPS>
approved; investigational

>  <GENERIC_NAME>
Cyclosporine

>  <SYNONYMS>
Ciclosporin; CsA; CyA; Cyclosporin A

>  <BRANDS>
Gengraf; Neoral ; Restasis ; Sandimmune ; Sangcya

$$$$
Cyanocobalamin
 OpenBabel02121510022D

 95106  0  0  1  0  0  0  0  0999 V2000
   -0.6470   -1.5660    0.0000 C   0  0  0  0  0  0  0  0  0  0  0  0
   -0.7590   -0.7620    0.0000 N   0  0  0  0  0  0  0  0  0  0  0  0
   -1.9520   -1.3670    0.0000 C   0  0  1  0  0  0  0  0  0  0  0  0
   -2.6230   -1.8460    0.0000 C   0  0  0  0  0  0  0  0  0  0  0  0
   -3.3740   -1.5050    0.0000 C   0  0  0  0  0  0  0  0  0  0  0  0
   -3.4540   -0.6840    0.0000 O   0  0  0  0  0  0  0  0  0  0  0  0
   -0.7590    0.9360    0.0000 N   0  3  3  0  0  0  0  0  0  0  0  0
   -0.6470    1.7400    0.0000 C   0  5  0  0  0  0  0  0  0  0  0  0
   -1.3600    2.1160    0.0000 C   0  0  1  0  0  0  0  0  0  0  0  0
   -1.4780    2.9330    0.0000 C   0  0  0  0  0  0  0  0  0  0  0  0
   -0.8300    3.4440    0.0000 C   0  0  0  0  0  0  0  0  0  0  0  0
   -0.9490    4.2600    0.0000 C   0  0  0  0  0  0  0  0  0  0  0  0
   -1.7150    4.5660    0.0000 O   0  0  0  0  0  0  0  0  0  0  0  0
   -1.9520    1.5370    0.0000 C   0  0  2  0  0  0  0  0  0  0  0  0
   -2.5940    2.0550    0.0000 C   0  0  0  0  0  0  0  0  0  0  0  0
   -2.7220    1.2400    0.0000 C   0  0  0  0  0  0  0  0  0  0  0  0
   -3.3630    1.7590    0.0000 C   0  0  0  0  0  0  0  0  0  0  0  0
   -4.1330    1.4620    0.0000 O   0  0  0  0  0  0  0  0  0  0  0  0
    0.7940    1.7400    0.0000 C   0  0  0  0  0  0  0  0  0  0  0  0
    0.9180    0.9360    0.0000 N   0  3  0  0  0  0  0  0  0  0  0  0
    1.7420    0.7870    0.0000 C   0  5  0  0  0  0  0  0  0  0  0  0
    2.1570    0.0870    0.0000 C   0  0  0  0  0  0  0  0  0  0  0  0
    1.7420   -0.6170    0.0000 C   0  0  0  0  0  0  0  0  0  0  0  0
    0.9180   -0.7620    0.0000 N   0  3  0  0  0  0  0  0  0  0  0  0
    0.7940   -1.5660    0.0000 C   0  5  0  0  0  0  0  0  0  0  0  0
    1.5310   -1.9460    0.0000 C   0  0  1  0  0  0  0  0  0  0  0  0
    1.6540   -2.7620    0.0000 C   0  0  0  0  0  0  0  0  0  0  0  0
    2.4210   -3.0640    0.0000 C   0  0  0  0  0  0  0  0  0  0  0  0
    2.5440   -3.8800    0.0000 C   0  0  0  0  0  0  0  0  0  0  0  0
    3.3110   -4.1820    0.0000 O   0  0  0  0  0  0  0  0  0  0  0  0
    2.1240   -1.3670    0.0000 C   0  0  0  0  0  0  0  0  0  0  0  0
    2.7620   -1.8900    0.0000 C   0  0  0  0  0  0  0  0  0  0  0  0
    2.8950   -1.0760    0.0000 C   0  0  0  0  0  0  0  0  0  0  0  0
    2.1240    1.5370    0.0000 C   0  0  1  0  0  0  0  0  0  0  0  0
    2.7960    2.0140    0.0000 C   0  0  0  0  0  0  0  0  0  0  0  0
    3.5460    1.6710    0.0000 C   0  0  0  0  0  0  0  0  0  0  0  0
    4.2190    2.1480    0.0000 C   0  0  0  0  0  0  0  0  0  0  0  0
    4.1410    2.9700    0.0000 O   0  0  0  0  0  0  0  0  0  0  0  0
    1.5310    2.1160    0.0000 C   0  0  1  0  0  0  0  0  0  0  0  0
    2.2820    2.4580    0.0000 C   0  0  0  0  0  0  0  0  0  0  0  0
    1.6110    2.9380    0.0000 C   0  0  0  0  0  0  0  0  0  0  0  0
    2.3610    3.2800    0.0000 C   0  0  0  0  0  0  0  0  0  0  0  0
    2.4410    4.1010    0.0000 O   0  0  0  0  0  0  0  0  0  0  0  0
    0.0900    2.1500    0.0000 C   0  0  0  0  0  0  0  0  0  0  0  0
    0.0900    2.9740    0.0000 C   0  0  0  0  0  0  0  0  0  0  0  0
    0.0900   -1.9800    0.0000 C   0  0  0  0  0  0  0  0  0  0  0  0
    0.0900   -2.8050    0.0000 C   0  0  0  0  0  0  0  0  0  0  0  0
   -1.5710   -0.6170    0.0000 C   0  0  2  0  0  0  0  0  0  0  0  0
   -2.3680   -0.4040    0.0000 H   0  0  0  0  0  0  0  0  0  0  0  0
   -1.5710    0.8120    0.0000 C   0  0  2  0  0  0  0  0  0  0  0  0
   -2.3680    0.5980    0.0000 C   0  0  0  0  0  0  0  0  0  0  0  0
   -2.0740   -3.1840    0.0000 C   0  0  0  0  0  0  0  0  0  0  0  0
   -2.7880   -3.5960    0.0000 C   0  0  0  0  0  0  0  0  0  0  0  0
   -3.5030   -3.1840    0.0000 O   0  0  0  0  0  0  0  0  0  0  0  0
   -2.7880   -4.4220    0.0000 N   0  0  0  0  0  0  0  0  0  0  0  0
   -3.5030   -4.8340    0.0000 C   0  0  0  0  0  0  0  0  0  0  0  0
   -3.5030   -5.6590    0.0000 C   0  0  2  0  0  0  0  0  0  0  0  0
   -4.3280   -5.6590    0.0000 H   0  0  0  0  0  0  0  0  0  0  0  0
   -2.0740   -2.3590    0.0000 C   0  0  0  0  0  0  0  0  0  0  0  0
   -1.3600   -1.9460    0.0000 C   0  0  1  0  0  0  0  0  0  0  0  0
   -1.3600   -2.7720    0.0000 C   0  0  0  0  0  0  0  0  0  0  0  0
   -0.3010    4.7710    0.0000 N   0  0  0  0  0  0  0  0  0  0  0  0
    3.0330    2.8000    0.0000 N   0  0  0  0  0  0  0  0  0  0  0  0
    4.9690    1.8050    0.0000 N   0  0  0  0  0  0  0  0  0  0  0  0
    1.8980   -4.3940    0.0000 N   0  0  0  0  0  0  0  0  0  0  0  0
   -3.2350    2.5740    0.0000 N   0  0  0  0  0  0  0  0  0  0  0  0
   -4.0450   -1.9840    0.0000 N   0  0  0  0  0  0  0  0  0  0  0  0
    2.5000   -5.6860    0.0000 C   0  0  0  0  0  0  0  0  0  0  0  0
    1.6750   -7.1150    0.0000 C   0  0  0  0  0  0  0  0  0  0  0  0
    1.6750   -5.6860    0.0000 C   0  0  0  0  0  0  0  0  0  0  0  0
    0.3690   -5.4090    0.0000 C   0  5  0  0  0  0  0  0  0  0  0  0
    1.2630   -6.4010    0.0000 C   0  0  0  0  0  0  0  0  0  0  0  0
    1.1230   -5.0730    0.0000 N   0  3  0  0  0  0  0  0  0  0  0  0
    0.4560   -6.2290    0.0000 N   0  0  0  0  0  0  0  0  0  0  0  0
    2.9130   -6.4010    0.0000 C   0  0  0  0  0  0  0  0  0  0  0  0
    3.7380   -6.4010    0.0000 C   0  0  0  0  0  0  0  0  0  0  0  0
    2.5000   -7.1150    0.0000 C   0  0  0  0  0  0  0  0  0  0  0  0
    2.9130   -7.8300    0.0000 C   0  0  0  0  0  0  0  0  0  0  0  0
   -0.1580   -6.7820    0.0000 C   0  0  1  0  0  0  0  0  0  0  0  0
   -0.0710   -7.6020    0.0000 O   0  0  0  0  0  0  0  0  0  0  0  0
   -0.8250   -7.9380    0.0000 C   0  0  2  0  0  0  0  0  0  0  0  0
   -0.9960   -8.7440    0.0000 C   0  0  0  0  0  0  0  0  0  0  0  0
   -1.7810   -8.9990    0.0000 O   0  0  0  0  0  0  0  0  0  0  0  0
   -0.9640   -6.6100    0.0000 C   0  0  2  0  0  0  0  0  0  0  0  0
   -1.3000   -5.8560    0.0000 O   0  0  0  0  0  0  0  0  0  0  0  0
   -1.3770   -7.3240    0.0000 C   0  0  2  0  0  0  0  0  0  0  0  0
   -2.1970   -7.4110    0.0000 O   0  0  0  0  0  0  0  0  0  0  0  0
   -2.8460   -7.2080    0.0000 O   0  0  0  0  0  0  0  0  0  0  0  0
   -2.6780   -5.6590    0.0000 O   0  0  0  0  0  0  0  0  0  0  0  0
   -3.5030   -6.4840    0.0000 C   0  0  0  0  0  0  0  0  0  0  0  0
   -2.1980   -6.5820    0.0000 P   0  0  3  0  0  0  0  0  0  0  0  0
   -1.4420   -6.6140    0.0000 O   0  0  0  0  0  0  0  0  0  0  0  0
    0.0600    0.1370    0.0000 Co  0  0  0  0  0  0  0  0  0  0  0  0
   -0.4320    2.9510    0.0000 C   0  0  0  0  0  0  0  0  0  0  0  0
   -0.0590    3.8040    0.0000 N   0  0  0  0  0  0  0  0  0  0  0  0
  1  2  1  0  0  0  0
  1 46  2  0  0  0  0
  1 60  1  0  0  0  0
  2 48  1  0  0  0  0
  2 93  1  0  0  0  0
  3  4  1  1  0  0  0
  3 48  1  0  0  0  0
  3 60  1  0  0  0  0
  4  5  1  0  0  0  0
  5  6  2  0  0  0  0
  5 67  1  0  0  0  0
  7  8  1  0  0  0  0
  7 50  1  0  0  0  0
  7 93  1  0  0  0  0
  8  9  1  0  0  0  0
  8 44  1  0  0  0  0
  9 10  1  6  0  0  0
  9 14  1  0  0  0  0
 10 11  1  0  0  0  0
 11 12  1  0  0  0  0
 12 13  2  0  0  0  0
 12 62  1  0  0  0  0
 14 15  1  6  0  0  0
 14 16  1  0  0  0  0
 14 50  1  0  0  0  0
 16 17  1  0  0  0  0
 17 18  2  0  0  0  0
 17 66  1  0  0  0  0
 19 20  1  0  0  0  0
 19 39  1  0  0  0  0
 19 44  2  0  0  0  0
 20 21  1  0  0  0  0
 20 93  1  0  0  0  0
 21 22  1  0  0  0  0
 21 34  1  0  0  0  0
 22 23  2  0  0  0  0
 23 24  1  0  0  0  0
 23 31  1  0  0  0  0
 24 25  1  0  0  0  0
 24 93  1  0  0  0  0
 25 26  1  0  0  0  0
 25 46  1  0  0  0  0
 26 27  1  6  0  0  0
 26 31  1  0  0  0  0
 27 28  1  0  0  0  0
 28 29  1  0  0  0  0
 29 30  2  0  0  0  0
 29 65  1  0  0  0  0
 31 32  1  0  0  0  0
 31 33  1  0  0  0  0
 34 35  1  6  0  0  0
 34 39  1  0  0  0  0
 35 36  1  0  0  0  0
 36 37  1  0  0  0  0
 37 38  2  0  0  0  0
 37 64  1  0  0  0  0
 39 40  1  6  0  0  0
 39 41  1  0  0  0  0
 41 42  1  0  0  0  0
 42 43  2  0  0  0  0
 42 63  1  0  0  0  0
 44 45  1  0  0  0  0
 46 47  1  0  0  0  0
 48 49  1  1  0  0  0
 48 50  1  0  0  0  0
 50 51  1  6  0  0  0
 52 53  1  0  0  0  0
 52 59  1  0  0  0  0
 53 54  2  0  0  0  0
 53 55  1  0  0  0  0
 55 56  1  0  0  0  0
 56 57  1  0  0  0  0
 57 58  1  1  0  0  0
 57 89  1  0  0  0  0
 57 90  1  0  0  0  0
 59 60  1  0  0  0  0
 60 61  1  1  0  0  0
 68 70  2  0  0  0  0
 68 75  1  0  0  0  0
 69 72  2  0  0  0  0
 69 77  1  0  0  0  0
 70 72  1  0  0  0  0
 70 73  1  0  0  0  0
 71 73  1  0  0  0  0
 71 74  1  0  0  0  0
 72 74  1  0  0  0  0
 73 93  1  0  0  0  0
 75 76  1  0  0  0  0
 75 77  2  0  0  0  0
 77 78  1  0  0  0  0
 79 74  1  1  0  0  0
 79 80  1  0  0  0  0
 79 84  1  0  0  0  0
 80 81  1  0  0  0  0
 81 82  1  6  0  0  0
 81 86  1  0  0  0  0
 82 83  1  0  0  0  0
 84 85  1  1  0  0  0
 84 86  1  0  0  0  0
 86 87  1  1  0  0  0
 87 91  1  0  0  0  0
 88 91  1  0  0  0  0
 89 91  1  0  0  0  0
 91 92  2  0  0  0  0
 93 94  1  0  0  0  0
 94 95  3  0  0  0  0
M  CHG  8   7   1   8  -1  20   1  21  -1  24   1  25  -1  71  -1  73   1
M  END
>  <DATABASE_ID>
DB00115

>  <DATABASE_NAME>
drugbank

>  <SMILES>
[Co](N\1[C@H]2[C@@]3(N=C([C@@H](CCC(=O)N)[C@@]3(CC(=O)N)C)\C(=C\3/N=C(\C=C\4/N=C([C@@H](CCC(=O)N)C/4(C)C)\C(=C/1\[C@@](CCC(=O)NC[C@H](OP(O[C@H]1[C@@H](O)[C@H](O[C@@H]1CO)n1c4cc(C)c(cc4nc1)C)(O)=O)C)(C)[C@H]2CC(=O)N)\C)[C@@H](CCC(=O)N)[C@@]/3(CC(=O)N)C)\C)C)C#N

>  <INCHI_IDENTIFIER>
InChI=1S/C62H90N13O14P.CN.Co/c1-29-20-39-40(21-30(29)2)75(28-70-39)57-52(84)53(41(27-76)87-57)89-90(85,86)88-31(3)26-69-49(83)18-19-59(8)37(22-46(66)80)56-62(11)61(10,25-48(68)82)36(14-17-45(65)79)51(74-62)33(5)55-60(9,24-47(67)81)34(12-15-43(63)77)38(71-55)23-42-58(6,7)35(13-16-44(64)78)50(72-42)32(4)54(59)73-56;1-2;/h20-21,23,28,31,34-37,41,52-53,56-57,76,84H,12-19,22,24-27H2,1-11H3,(H15,63,64,65,66,67,68,69,71,72,73,74,77,78,79,80,81,82,83,85,86);;/q;;+1/p-1/t31-,34-,35-,36-,37+,41-,52-,53-,56-,57+,59-,60+,61+,62+;;/m1../s1

>  <INCHI_KEY>
InChIKey=SEKGMJVHSBBHRD-WZHZPDAFSA-M

>  <JCHEM_BIOAVAILABILITY>
0

>  <JCHEM_EXACT_MASS>
1355.5752

>  <JCHEM_FORMAL_CHARGE>
0

>  <JCHEM_FORMULA>
C63H89CoN14O14P

>  <JCHEM_GHOSE_FILTER>
0

>  <ALOGPS_LOGP>
1.87

>  <ALOGPS_LOGS>
-4.5500002

>  <JCHEM_MASS>
1356.373

>  <JCHEM_MDDR_LIKE_RULE>
1

>  <JCHEM_NUMBER_OF_RINGS>
8

>  <JCHEM_PHYSIOLOGICAL_CHARGE>
2

>  <JCHEM_PKA_STRONGEST_ACIDIC>
1.8410431

>  <JCHEM_PKA_STRONGEST_BASIC>
8.7717514

>  <JCHEM_RULE_OF_FIVE>
0

>  <ALOGPS_SOLUBILITY>
3.84e-02 g/l

>  <JCHEM_VEBER_RULE>
0

>  <DRUGBANK_ID>
DB00115

>  <DRUG_GROUPS>
approved; nutraceutical

>  <GENERIC_NAME>
Cyanocobalamin

>  <SYNONYMS>
Cyanocob(III)alamin; Vitamin B12; Vitamin B12 complex

>  <BRANDS>
Bedodeka; Bedoz; Berubigen; Betalin; Cobione; Cobolin-M; Crystamine; Cyanoject; Cyomin; Cytakon; Cytamen; Dicopac; Nascobal; Neuroforte-R; Primabalt; Rubramin PC; Vitabee 12

$$$$
L-Histidine
 OpenBabel02121510022D

 11 11  0  0  1  0  0  0  0  0999 V2000
    5.7800    0.3690    0.0000 O   0  0  0  0  0  0  0  0  0  0  0  0
    5.3390   -0.9900    0.0000 O   0  0  0  0  0  0  0  0  0  0  0  0
    2.3170   -0.7100    0.0000 N   0  0  0  0  0  0  0  0  0  0  0  0
    4.2110    0.8790    0.0000 N   0  0  0  0  0  0  0  0  0  0  0  0
    1.9050    0.5600    0.0000 N   0  0  0  0  0  0  0  0  0  0  0  0
    3.7700   -0.4800    0.0000 C   0  0  0  0  0  0  0  0  0  0  0  0
    4.3830    0.0720    0.0000 C   0  0  1  0  0  0  0  0  0  0  0  0
    2.9850   -0.2250    0.0000 C   0  0  0  0  0  0  0  0  0  0  0  0
    5.1670   -0.1830    0.0000 C   0  0  0  0  0  0  0  0  0  0  0  0
    2.7300    0.5600    0.0000 C   0  0  0  0  0  0  0  0  0  0  0  0
    1.6500   -0.2250    0.0000 C   0  0  0  0  0  0  0  0  0  0  0  0
  1  9  1  0  0  0  0
  2  9  2  0  0  0  0
  3  8  1  0  0  0  0
  3 11  1  0  0  0  0
  5 10  1  0  0  0  0
  5 11  2  0  0  0  0
  6  8  1  0  0  0  0
  7  6  1  6  0  0  0
  7  4  1  0  0  0  0
  7  9  1  0  0  0  0
  8 10  2  0  0  0  0
M  END
>  <DATABASE_ID>
DB00117

>  <DATABASE_NAME>
drugbank

>  <SMILES>
OC(=O)[C@@H](N)Cc1[nH]cnc1

>  <INCHI_IDENTIFIER>
InChI=1S/C6H9N3O2/c7-5(6(10)11)1-4-2-8-3-9-4/h2-3,5H,1,7H2,(H,8,9)(H,10,11)/t5-/m0/s1

>  <INCHI_KEY>
InChIKey=HNDVDQJCIGZPNO-YFKPBYRVSA-N

>  <JCHEM_ACCEPTOR_COUNT>
4

>  <JCHEM_AVERAGE_POLARIZABILITY>
14.670259

>  <JCHEM_BIOAVAILABILITY>
1

>  <JCHEM_DONOR_COUNT>
3

>  <JCHEM_EXACT_MASS>
155.06947

>  <JCHEM_FORMAL_CHARGE>
0

>  <JCHEM_FORMULA>
C6H9N3O2

>  <JCHEM_GHOSE_FILTER>
0

>  <JCHEM_IUPAC>
(2S)-2-amino-3-(1H-imidazol-5-yl)propanoic acid

>  <ALOGPS_LOGP>
-3.0899999

>  <JCHEM_LOGP>
-3.6160226

>  <ALOGPS_LOGS>
-0.40000001

>  <JCHEM_MASS>
155.1546

>  <JCHEM_MDDR_LIKE_RULE>
0

>  <JCHEM_NUMBER_OF_RINGS>
1

>  <JCHEM_PHYSIOLOGICAL_CHARGE>
0

>  <JCHEM_PKA>
12.941173

>  <JCHEM_PKA_STRONGEST_ACIDIC>
1.8499727

>  <JCHEM_PKA_STRONGEST_BASIC>
9.4371376

>  <JCHEM_POLAR_SURFACE_AREA>
92

>  <JCHEM_REFRACTIVITY>
38.058998

>  <JCHEM_ROTATABLE_BOND_COUNT>
3

>  <JCHEM_RULE_OF_FIVE>
1

>  <ALOGPS_SOLUBILITY>
6.20e+01 g/l

>  <JCHEM_TRADITIONAL_IUPAC>
L-histidine

>  <JCHEM_VEBER_RULE>
0

>  <DRUGBANK_ID>
DB00117

>  <DRUG_GROUPS>
approved; nutraceutical

>  <GENERIC_NAME>
L-Histidine

>  <SYNONYMS>
(S)-4-(2-Amino-2-carboxyethyl)imidazole; (S)-a-Amino-1H-imidazole-4-propanoic acid; (S)-alpha-Amino-1H-imidazole-4-propionic acid; (S)-α-amino-1H-Imidazole-4-propanoic acid; Histidine; L-(-)-Histidine; L-(−)-histidine; L-Histidin

$$$$
S-Adenosylmethionine
 OpenBabel02121510022D

 27 29  0  0  1  0  0  0  0  0999 V2000
    6.3240    1.4140    0.0000 S   0  3  3  0  0  0  0  0  0  0  0  0
    4.9010    0.4420    0.0000 O   0  0  0  0  0  0  0  0  0  0  0  0
    3.8650    2.3090    0.0000 O   0  0  0  0  0  0  0  0  0  0  0  0
    2.8070    0.8580    0.0000 O   0  0  0  0  0  0  0  0  0  0  0  0
    9.8350    2.1920    0.0000 O   0  0  0  0  0  0  0  0  0  0  0  0
    9.2520    0.8870    0.0000 O   0  0  0  0  0  0  0  0  0  0  0  0
    3.8600   -0.5960    0.0000 N   0  0  0  0  0  0  0  0  0  0  0  0
    3.8600   -1.9230    0.0000 N   0  0  0  0  0  0  0  0  0  0  0  0
    2.3640   -0.4340    0.0000 N   0  0  0  0  0  0  0  0  0  0  0  0
    8.3290    2.8650    0.0000 N   0  0  0  0  0  0  0  0  0  0  0  0
    1.6500   -1.6720    0.0000 N   0  0  0  0  0  0  0  0  0  0  0  0
    2.3640   -2.9100    0.0000 N   0  0  0  0  0  0  0  0  0  0  0  0
    4.9020    1.2670    0.0000 C   0  0  1  0  0  0  0  0  0  0  0  0
    4.1180    1.5240    0.0000 C   0  0  2  0  0  0  0  0  0  0  0  0
    3.6320    0.8570    0.0000 C   0  0  2  0  0  0  0  0  0  0  0  0
    4.1160    0.1890    0.0000 C   0  0  1  0  0  0  0  0  0  0  0  0
    5.5710    1.7510    0.0000 C   0  0  0  0  0  0  0  0  0  0  0  0
    6.9920    1.8980    0.0000 C   0  0  0  0  0  0  0  0  0  0  0  0
    3.0790   -0.8470    0.0000 C   0  0  0  0  0  0  0  0  0  0  0  0
    4.3410   -1.2600    0.0000 C   0  0  0  0  0  0  0  0  0  0  0  0
    7.7450    1.5610    0.0000 C   0  0  0  0  0  0  0  0  0  0  0  0
    6.4090    0.5930    0.0000 C   0  0  0  0  0  0  0  0  0  0  0  0
    3.0790   -1.6720    0.0000 C   0  0  0  0  0  0  0  0  0  0  0  0
    8.4140    2.0450    0.0000 C   0  0  1  0  0  0  0  0  0  0  0  0
    2.3640   -2.0850    0.0000 C   0  0  0  0  0  0  0  0  0  0  0  0
    9.1670    1.7080    0.0000 C   0  0  0  0  0  0  0  0  0  0  0  0
    1.6500   -0.8470    0.0000 C   0  0  0  0  0  0  0  0  0  0  0  0
  1 17  1  0  0  0  0
  1 18  1  0  0  0  0
  1 22  1  0  0  0  0
  2 13  1  0  0  0  0
  2 16  1  0  0  0  0
  5 26  1  0  0  0  0
  6 26  2  0  0  0  0
  7 19  1  0  0  0  0
  7 20  1  0  0  0  0
  8 20  2  0  0  0  0
  8 23  1  0  0  0  0
  9 19  1  0  0  0  0
  9 27  2  0  0  0  0
 11 25  2  0  0  0  0
 11 27  1  0  0  0  0
 12 25  1  0  0  0  0
 13 14  1  0  0  0  0
 13 17  1  1  0  0  0
 14  3  1  6  0  0  0
 14 15  1  0  0  0  0
 15  4  1  6  0  0  0
 15 16  1  0  0  0  0
 16  7  1  1  0  0  0
 18 21  1  0  0  0  0
 19 23  2  0  0  0  0
 23 25  1  0  0  0  0
 24 21  1  6  0  0  0
 24 10  1  0  0  0  0
 24 26  1  0  0  0  0
M  CHG  1   1   1
M  END
>  <DATABASE_ID>
DB00118

>  <DATABASE_NAME>
drugbank

>  <SMILES>
[S+](C[C@H]1O[C@@H](n2c3ncnc(N)c3nc2)[C@H](O)[C@@H]1O)(CC[C@H](N)C(O)=O)C

>  <INCHI_IDENTIFIER>
InChI=1S/C15H22N6O5S/c1-27(3-2-7(16)15(24)25)4-8-10(22)11(23)14(26-8)21-6-20-9-12(17)18-5-19-13(9)21/h5-8,10-11,14,22-23H,2-4,16H2,1H3,(H2-,17,18,19,24,25)/p+1/t7-,8+,10+,11+,14+,27?/m0/s1

>  <INCHI_KEY>
InChIKey=MEFKEPWMEQBLKI-AIRLBKTGSA-O

>  <JCHEM_ACCEPTOR_COUNT>
10

>  <JCHEM_AVERAGE_POLARIZABILITY>
40.370552

>  <JCHEM_BIOAVAILABILITY>
1

>  <JCHEM_DONOR_COUNT>
5

>  <JCHEM_EXACT_MASS>
399.14505

>  <JCHEM_FORMAL_CHARGE>
1

>  <JCHEM_FORMULA>
C15H23N6O5S

>  <JCHEM_GHOSE_FILTER>
0

>  <JCHEM_IUPAC>
[(3S)-3-amino-3-carboxypropyl]({[(2S,3S,4R,5R)-5-(6-amino-9H-purin-9-yl)-3,4-dihydroxyoxolan-2-yl]methyl})methylsulfanium

>  <ALOGPS_LOGP>
-1.99

>  <JCHEM_LOGP>
-5.3237367

>  <ALOGPS_LOGS>
-2.5599999

>  <JCHEM_MASS>
399.44501

>  <JCHEM_MDDR_LIKE_RULE>
1

>  <JCHEM_NUMBER_OF_RINGS>
3

>  <JCHEM_PHYSIOLOGICAL_CHARGE>
1

>  <JCHEM_PKA>
12.444251

>  <JCHEM_PKA_STRONGEST_ACIDIC>
1.7057267

>  <JCHEM_PKA_STRONGEST_BASIC>
9.414381

>  <JCHEM_POLAR_SURFACE_AREA>
182.63

>  <JCHEM_REFRACTIVITY>
96.234901

>  <JCHEM_ROTATABLE_BOND_COUNT>
7

>  <JCHEM_RULE_OF_FIVE>
1

>  <ALOGPS_SOLUBILITY>
1.19e+00 g/l

>  <JCHEM_TRADITIONAL_IUPAC>
SAMe

>  <JCHEM_VEBER_RULE>
0

>  <DRUGBANK_ID>
DB00118

>  <DRUG_GROUPS>
approved; nutraceutical

>  <GENERIC_NAME>
S-Adenosylmethionine

>  <SYNONYMS>
Acylcarnitine; AdoMet; S-adenosyl-L-methionine; SAM

>  <BRANDS>
Sam-Sulfate; SAMe; SAMe Rx-Mood

>  <SALTS>
S-Adenosylmethionine butanedisulfonate; S-Adenosylmethionine disulfate ditosylate; S-Adenosylmethionine disulfate monotosylate; S-Adenosylmethionine disulfate tosylate; S-Adenosylmethionine tosylate

$$$$
Biotin
 OpenBabel02121510022D

 18 19  0  0  1  0  0  0  0  0999 V2000
    5.0070   -1.4300    0.0000 S   0  0  0  0  0  0  0  0  0  0  0  0
    1.6500   -1.4300    0.0000 O   0  0  0  0  0  0  0  0  0  0  0  0
    7.7170    2.0980    0.0000 O   0  0  0  0  0  0  0  0  0  0  0  0
    6.3580    2.5410    0.0000 O   0  0  0  0  0  0  0  0  0  0  0  0
    2.9600   -0.7620    0.0000 N   0  0  0  0  0  0  0  0  0  0  0  0
    2.9600   -2.0970    0.0000 N   0  0  0  0  0  0  0  0  0  0  0  0
    3.7450   -1.0170    0.0000 C   0  0  1  0  0  0  0  0  0  0  0  0
    3.7450   -1.8420    0.0000 C   0  0  2  0  0  0  0  0  0  0  0  0
    4.5260   -0.7660    0.0000 C   0  0  2  0  0  0  0  0  0  0  0  0
    4.5260   -2.0940    0.0000 C   0  0  0  0  0  0  0  0  0  0  0  0
    4.7820    0.0190    0.0000 C   0  0  0  0  0  0  0  0  0  0  0  0
    5.5890    0.1890    0.0000 C   0  0  0  0  0  0  0  0  0  0  0  0
    2.4750   -1.4300    0.0000 C   0  0  0  0  0  0  0  0  0  0  0  0
    5.8460    0.9730    0.0000 C   0  0  0  0  0  0  0  0  0  0  0  0
    6.6530    1.1430    0.0000 C   0  0  0  0  0  0  0  0  0  0  0  0
    6.9090    1.9270    0.0000 C   0  0  0  0  0  0  0  0  0  0  0  0
    3.7460   -0.3570    0.0000 H   0  0  0  0  0  0  0  0  0  0  0  0
    3.7460   -2.5020    0.0000 H   0  0  0  0  0  0  0  0  0  0  0  0
  1  9  1  0  0  0  0
  1 10  1  0  0  0  0
  2 13  2  0  0  0  0
  3 16  1  0  0  0  0
  4 16  2  0  0  0  0
  5  7  1  0  0  0  0
  5 13  1  0  0  0  0
  6  8  1  0  0  0  0
  6 13  1  0  0  0  0
  7  8  1  0  0  0  0
  7  9  1  0  0  0  0
  7 17  1  1  0  0  0
  8 10  1  0  0  0  0
  8 18  1  1  0  0  0
  9 11  1  6  0  0  0
 11 12  1  0  0  0  0
 12 14  1  0  0  0  0
 14 15  1  0  0  0  0
 15 16  1  0  0  0  0
M  END
>  <DATABASE_ID>
DB00121

>  <DATABASE_NAME>
drugbank

>  <SMILES>
S1C[C@@H]2NC(=O)N[C@@H]2[C@@H]1CCCCC(O)=O

>  <INCHI_IDENTIFIER>
InChI=1S/C10H16N2O3S/c13-8(14)4-2-1-3-7-9-6(5-16-7)11-10(15)12-9/h6-7,9H,1-5H2,(H,13,14)(H2,11,12,15)/t6-,7-,9-/m0/s1

>  <INCHI_KEY>
InChIKey=YBJHBAHKTGYVGT-ZKWXMUAHSA-N

>  <JCHEM_ACCEPTOR_COUNT>
3

>  <JCHEM_AVERAGE_POLARIZABILITY>
24.919241

>  <JCHEM_BIOAVAILABILITY>
1

>  <JCHEM_DONOR_COUNT>
3

>  <JCHEM_EXACT_MASS>
244.08817

>  <JCHEM_FORMAL_CHARGE>
0

>  <JCHEM_FORMULA>
C10H16N2O3S

>  <JCHEM_GHOSE_FILTER>
1

>  <JCHEM_IUPAC>
5-[(3aS,4S,6aR)-2-oxo-hexahydro-1H-thieno[3,4-d]imidazolidin-4-yl]pentanoic acid

>  <ALOGPS_LOGP>
0.17

>  <JCHEM_LOGP>
0.31942365

>  <ALOGPS_LOGS>
-2.3

>  <JCHEM_MASS>
244.311

>  <JCHEM_MDDR_LIKE_RULE>
0

>  <JCHEM_NUMBER_OF_RINGS>
2

>  <JCHEM_PHYSIOLOGICAL_CHARGE>
-1

>  <JCHEM_PKA>
13.54699

>  <JCHEM_PKA_STRONGEST_ACIDIC>
4.4043164

>  <JCHEM_PKA_STRONGEST_BASIC>
-1.8636397

>  <JCHEM_POLAR_SURFACE_AREA>
78.43

>  <JCHEM_REFRACTIVITY>
60.0509

>  <JCHEM_ROTATABLE_BOND_COUNT>
5

>  <JCHEM_RULE_OF_FIVE>
1

>  <ALOGPS_SOLUBILITY>
1.22e+00 g/l

>  <JCHEM_TRADITIONAL_IUPAC>
biotin

>  <JCHEM_VEBER_RULE>
0

>  <DRUGBANK_ID>
DB00121

>  <DRUG_GROUPS>
approved; nutraceutical

>  <GENERIC_NAME>
Biotin

>  <SYNONYMS>
(+)-cis-Hexahydro-2-oxo-1H-thieno[3,4]imidazole-4-valeric acid; cis-(+)-Tetrahydro-2-oxothieno[3,4]imidazoline-4-valeric acid; Coenzyme R; D-Biotin; D(+)-Biotin; Vitamin B7; Vitamin H

>  <BRANDS>
Appearex; Biodermatin; Meribin; Nail-ex

$$$$
Choline
 OpenBabel02121510022D

  7  6  0  0  0  0  0  0  0  0999 V2000
    4.5080    0.4120    0.0000 O   0  0  0  0  0  0  0  0  0  0  0  0
    2.3640    0.0000    0.0000 N   0  3  0  0  0  0  0  0  0  0  0  0
    3.0790    0.4120    0.0000 C   0  0  0  0  0  0  0  0  0  0  0  0
    1.6500   -0.4120    0.0000 C   0  0  0  0  0  0  0  0  0  0  0  0
    1.9520    0.7140    0.0000 C   0  0  0  0  0  0  0  0  0  0  0  0
    2.7770   -0.7140    0.0000 C   0  0  0  0  0  0  0  0  0  0  0  0
    3.7940    0.0000    0.0000 C   0  0  0  0  0  0  0  0  0  0  0  0
  1  7  1  0  0  0  0
  2  3  1  0  0  0  0
  2  4  1  0  0  0  0
  2  5  1  0  0  0  0
  2  6  1  0  0  0  0
  3  7  1  0  0  0  0
M  CHG  1   2   1
M  END
>  <DATABASE_ID>
DB00122

>  <DATABASE_NAME>
drugbank

>  <SMILES>
OCC[N+](C)(C)C

>  <INCHI_IDENTIFIER>
InChI=1S/C5H14NO/c1-6(2,3)4-5-7/h7H,4-5H2,1-3H3/q+1

>  <INCHI_KEY>
InChIKey=OEYIOHPDSNJKLS-UHFFFAOYSA-N

>  <JCHEM_ACCEPTOR_COUNT>
1

>  <JCHEM_AVERAGE_POLARIZABILITY>
12.565613

>  <JCHEM_BIOAVAILABILITY>
1

>  <JCHEM_DONOR_COUNT>
1

>  <JCHEM_EXACT_MASS>
104.10754

>  <JCHEM_FORMAL_CHARGE>
1

>  <JCHEM_FORMULA>
C5H14NO

>  <JCHEM_GHOSE_FILTER>
0

>  <JCHEM_IUPAC>
(2-hydroxyethyl)trimethylazanium

>  <ALOGPS_LOGP>
-3.5899999

>  <JCHEM_LOGP>
-4.6622691

>  <ALOGPS_LOGS>
-1.59

>  <JCHEM_MASS>
104.1708

>  <JCHEM_MDDR_LIKE_RULE>
0

>  <JCHEM_NUMBER_OF_RINGS>
0

>  <JCHEM_PHYSIOLOGICAL_CHARGE>
1

>  <JCHEM_PKA_STRONGEST_ACIDIC>
13.968714

>  <JCHEM_PKA_STRONGEST_BASIC>
-3.2498844

>  <JCHEM_POLAR_SURFACE_AREA>
20.23

>  <JCHEM_REFRACTIVITY>
42.194

>  <JCHEM_ROTATABLE_BOND_COUNT>
2

>  <JCHEM_RULE_OF_FIVE>
1

>  <ALOGPS_SOLUBILITY>
3.61e+00 g/l

>  <JCHEM_TRADITIONAL_IUPAC>
choline

>  <JCHEM_VEBER_RULE>
1

>  <DRUGBANK_ID>
DB00122

>  <DRUG_GROUPS>
approved; nutraceutical

>  <GENERIC_NAME>
Choline

>  <SYNONYMS>
Bilineurine; Choline ion; N-trimethylethanolamine; N,N,N-trimethylethanol-ammonium; trimethylethanolamine

$$$$
Vitamin C
 OpenBabel02121510022D

 13 13  0  0  1  0  0  0  0  0999 V2000
    0.0000    0.0000    0.0000 O   0  0  0  0  0  0  0  0  0  0  0  0
   -0.8970   -1.9370    0.0000 O   0  0  0  0  0  0  0  0  0  0  0  0
    0.8970   -1.9370    0.0000 O   0  0  0  0  0  0  0  0  0  0  0  0
    0.6670   -0.4850    0.0000 C   0  0  0  0  0  0  0  0  0  0  0  0
    1.4520   -0.2300    0.0000 O   0  0  0  0  0  0  0  0  0  0  0  0
    0.4120   -1.2700    0.0000 C   0  0  0  0  0  0  0  0  0  0  0  0
   -0.4120   -1.2700    0.0000 C   0  0  0  0  0  0  0  0  0  0  0  0
   -2.8110   -0.0720    0.0000 O   0  0  0  0  0  0  0  0  0  0  0  0
   -2.0960   -0.4850    0.0000 C   0  0  0  0  0  0  0  0  0  0  0  0
   -1.3820   -0.0720    0.0000 C   0  0  2  0  0  0  0  0  0  0  0  0
   -1.3820    0.7530    0.0000 O   0  0  0  0  0  0  0  0  0  0  0  0
   -0.6670   -0.4850    0.0000 C   0  0  1  0  0  0  0  0  0  0  0  0
   -1.2510   -1.0680    0.0000 H   0  0  0  0  0  0  0  0  0  0  0  0
  1  4  1  0  0  0  0
  1 12  1  0  0  0  0
  2  7  1  0  0  0  0
  3  6  1  0  0  0  0
  4  5  2  0  0  0  0
  4  6  1  0  0  0  0
  6  7  2  0  0  0  0
  7 12  1  0  0  0  0
  8  9  1  0  0  0  0
 10  9  1  6  0  0  0
 10 11  1  0  0  0  0
 12 10  1  0  0  0  0
 12 13  1  6  0  0  0
M  END
>  <DATABASE_ID>
DB00126

>  <DATABASE_NAME>
drugbank

>  <SMILES>
O1[C@H]([C@@H](O)CO)C(O)=C(O)C1=O

>  <INCHI_IDENTIFIER>
InChI=1S/C6H8O6/c7-1-2(8)5-3(9)4(10)6(11)12-5/h2,5,7-10H,1H2/t2-,5+/m0/s1

>  <INCHI_KEY>
InChIKey=CIWBSHSKHKDKBQ-JLAZNSOCSA-N

>  <JCHEM_ACCEPTOR_COUNT>
5

>  <JCHEM_AVERAGE_POLARIZABILITY>
14.932525

>  <JCHEM_BIOAVAILABILITY>
1

>  <JCHEM_DONOR_COUNT>
4

>  <JCHEM_EXACT_MASS>
176.03209

>  <JCHEM_FORMAL_CHARGE>
0

>  <JCHEM_FORMULA>
C6H8O6

>  <JCHEM_GHOSE_FILTER>
0

>  <JCHEM_IUPAC>
(5R)-5-[(1S)-1,2-dihydroxyethyl]-3,4-dihydroxy-2,5-dihydrofuran-2-one

>  <ALOGPS_LOGP>
-1.58

>  <JCHEM_LOGP>
-1.9135588

>  <ALOGPS_LOGS>
0.14

>  <JCHEM_MASS>
176.1241

>  <JCHEM_MDDR_LIKE_RULE>
0

>  <JCHEM_NUMBER_OF_RINGS>
1

>  <JCHEM_PHYSIOLOGICAL_CHARGE>
-1

>  <JCHEM_PKA>
11.197701

>  <JCHEM_PKA_STRONGEST_ACIDIC>
4.3599176

>  <JCHEM_PKA_STRONGEST_BASIC>
-2.9797289

>  <JCHEM_POLAR_SURFACE_AREA>
107.22

>  <JCHEM_REFRACTIVITY>
37.032101

>  <JCHEM_ROTATABLE_BOND_COUNT>
2

>  <JCHEM_RULE_OF_FIVE>
1

>  <ALOGPS_SOLUBILITY>
2.45e+02 g/l

>  <JCHEM_TRADITIONAL_IUPAC>
vitamin C

>  <JCHEM_VEBER_RULE>
0

>  <DRUGBANK_ID>
DB00126

>  <DRUG_GROUPS>
approved; nutraceutical

>  <GENERIC_NAME>
Vitamin C

>  <SYNONYMS>
Ascorbate; Ascorbic Acid; L-(+)-ascorbic acid; L-Ascorbate; L-Ascorbic Acid

>  <BRANDS>
Ascoltin; Ascorbicap

$$$$
L-Ornithine
 OpenBabel02121510022D

  9  8  0  0  1  0  0  0  0  0999 V2000
   -1.6670    0.2290    0.0000 C   0  0  0  0  0  0  0  0  0  0  0  0
   -0.9530   -0.1830    0.0000 C   0  0  0  0  0  0  0  0  0  0  0  0
   -0.2380    0.2290    0.0000 C   0  0  0  0  0  0  0  0  0  0  0  0
    0.4760   -0.1830    0.0000 C   0  0  1  0  0  0  0  0  0  0  0  0
    1.1910    0.2290    0.0000 C   0  0  0  0  0  0  0  0  0  0  0  0
    1.1910    1.0540    0.0000 O   0  0  0  0  0  0  0  0  0  0  0  0
   -2.3820   -0.1830    0.0000 N   0  0  0  0  0  0  0  0  0  0  0  0
    0.4760   -1.0080    0.0000 N   0  0  0  0  0  0  0  0  0  0  0  0
    1.9050   -0.1830    0.0000 O   0  0  0  0  0  0  0  0  0  0  0  0
  1  2  1  0  0  0  0
  1  7  1  0  0  0  0
  2  3  1  0  0  0  0
  4  3  1  1  0  0  0
  4  5  1  0  0  0  0
  4  8  1  0  0  0  0
  5  6  2  0  0  0  0
  5  9  1  0  0  0  0
M  END
>  <DATABASE_ID>
DB00129

>  <DATABASE_NAME>
drugbank

>  <SMILES>
OC(=O)[C@@H](N)CCCN

>  <INCHI_IDENTIFIER>
InChI=1S/C5H12N2O2/c6-3-1-2-4(7)5(8)9/h4H,1-3,6-7H2,(H,8,9)/t4-/m0/s1

>  <INCHI_KEY>
InChIKey=AHLPHDHHMVZTML-BYPYZUCNSA-N

>  <JCHEM_ACCEPTOR_COUNT>
4

>  <JCHEM_AVERAGE_POLARIZABILITY>
13.853261

>  <JCHEM_BIOAVAILABILITY>
1

>  <JCHEM_DONOR_COUNT>
3

>  <JCHEM_EXACT_MASS>
132.08987

>  <JCHEM_FORMAL_CHARGE>
0

>  <JCHEM_FORMULA>
C5H12N2O2

>  <JCHEM_GHOSE_FILTER>
0

>  <JCHEM_IUPAC>
(2S)-2,5-diaminopentanoic acid

>  <ALOGPS_LOGP>
-3.6400001

>  <JCHEM_LOGP>
-3.6582875

>  <ALOGPS_LOGS>
0.11

>  <JCHEM_MASS>
132.161

>  <JCHEM_MDDR_LIKE_RULE>
0

>  <JCHEM_NUMBER_OF_RINGS>
0

>  <JCHEM_PHYSIOLOGICAL_CHARGE>
1

>  <JCHEM_PKA_STRONGEST_ACIDIC>
2.6664226

>  <JCHEM_PKA_STRONGEST_BASIC>
10.286821

>  <JCHEM_POLAR_SURFACE_AREA>
89.339996

>  <JCHEM_REFRACTIVITY>
33.2085

>  <JCHEM_ROTATABLE_BOND_COUNT>
4

>  <JCHEM_RULE_OF_FIVE>
1

>  <ALOGPS_SOLUBILITY>
1.72e+02 g/l

>  <JCHEM_TRADITIONAL_IUPAC>
ornithine

>  <JCHEM_VEBER_RULE>
0

>  <DRUGBANK_ID>
DB00129

>  <DRUG_GROUPS>
approved; nutraceutical

>  <GENERIC_NAME>
L-Ornithine

>  <SYNONYMS>
(S)-2,5-Diaminopentanoate; (S)-2,5-Diaminopentanoic acid; (S)-2,5-diaminovaleric acid; (S)-ornithine; (S)-α,δ-diaminovaleric acid

$$$$
L-Methionine
 OpenBabel02121510022D

  9  8  0  0  1  0  0  0  0  0999 V2000
    2.3640   -1.4440    0.0000 S   0  0  0  0  0  0  0  0  0  0  0  0
    4.5080    0.6190    0.0000 O   0  0  0  0  0  0  0  0  0  0  0  0
    3.7930    1.8560    0.0000 O   0  0  0  0  0  0  0  0  0  0  0  0
    2.3640    1.0310    0.0000 N   0  0  0  0  0  0  0  0  0  0  0  0
    3.0790   -0.2060    0.0000 C   0  0  0  0  0  0  0  0  0  0  0  0
    3.0790    0.6190    0.0000 C   0  0  1  0  0  0  0  0  0  0  0  0
    2.3640   -0.6190    0.0000 C   0  0  0  0  0  0  0  0  0  0  0  0
    3.7930    1.0310    0.0000 C   0  0  0  0  0  0  0  0  0  0  0  0
    1.6500   -1.8560    0.0000 C   0  0  0  0  0  0  0  0  0  0  0  0
  1  7  1  0  0  0  0
  1  9  1  0  0  0  0
  2  8  1  0  0  0  0
  3  8  2  0  0  0  0
  5  7  1  0  0  0  0
  6  5  1  6  0  0  0
  6  4  1  0  0  0  0
  6  8  1  0  0  0  0
M  END
>  <DATABASE_ID>
DB00134

>  <DATABASE_NAME>
drugbank

>  <SMILES>
S(CC[C@H](N)C(O)=O)C

>  <INCHI_IDENTIFIER>
InChI=1S/C5H11NO2S/c1-9-3-2-4(6)5(7)8/h4H,2-3,6H2,1H3,(H,7,8)/t4-/m0/s1

>  <INCHI_KEY>
InChIKey=FFEARJCKVFRZRR-BYPYZUCNSA-N

>  <JCHEM_ACCEPTOR_COUNT>
3

>  <JCHEM_AVERAGE_POLARIZABILITY>
15.504514

>  <JCHEM_BIOAVAILABILITY>
1

>  <JCHEM_DONOR_COUNT>
2

>  <JCHEM_EXACT_MASS>
149.05106

>  <JCHEM_FORMAL_CHARGE>
0

>  <JCHEM_FORMULA>
C5H11NO2S

>  <JCHEM_GHOSE_FILTER>
0

>  <JCHEM_IUPAC>
(2S)-2-amino-4-(methylsulfanyl)butanoic acid

>  <ALOGPS_LOGP>
-1.85

>  <JCHEM_LOGP>
-2.1893265

>  <ALOGPS_LOGS>
-0.80000001

>  <JCHEM_MASS>
149.211

>  <JCHEM_MDDR_LIKE_RULE>
0

>  <JCHEM_NUMBER_OF_RINGS>
0

>  <JCHEM_PHYSIOLOGICAL_CHARGE>
0

>  <JCHEM_PKA_STRONGEST_ACIDIC>
2.5319209

>  <JCHEM_PKA_STRONGEST_BASIC>
9.5023232

>  <JCHEM_POLAR_SURFACE_AREA>
63.32

>  <JCHEM_REFRACTIVITY>
37.585999

>  <JCHEM_ROTATABLE_BOND_COUNT>
4

>  <JCHEM_RULE_OF_FIVE>
1

>  <ALOGPS_SOLUBILITY>
2.39e+01 g/l

>  <JCHEM_TRADITIONAL_IUPAC>
L-methionine

>  <JCHEM_VEBER_RULE>
0

>  <DRUGBANK_ID>
DB00134

>  <DRUG_GROUPS>
approved; nutraceutical

>  <GENERIC_NAME>
L-Methionine

>  <SYNONYMS>
(S)-2-amino-4-(methylthio)butanoic acid; (S)-2-amino-4-(methylthio)butyric acid; (S)-methionine; L-(-)-Methionine; L-a-Amino-g-methylthiobutyric acid; L-α-amino-γ-methylmercaptobutyric acid; Met; Methionine

>  <BRANDS>
Acimethin

$$$$
Calcitriol
 OpenBabel02121510022D

 32 34  0  0  1  0  0  0  0  0999 V2000
   -1.0890    1.2760    0.0000 C   0  0  0  0  0  0  0  0  0  0  0  0
   -1.0890   -0.3740    0.0000 C   0  0  0  0  0  0  0  0  0  0  0  0
    0.4100   -0.2160    0.0000 C   0  0  0  0  0  0  0  0  0  0  0  0
    0.8950    0.4520    0.0000 C   0  0  0  0  0  0  0  0  0  0  0  0
   -1.8040    0.8640    0.0000 C   0  0  0  0  0  0  0  0  0  0  0  0
   -1.0890   -1.1980    0.0000 C   0  0  0  0  0  0  0  0  0  0  0  0
   -1.8040    0.0390    0.0000 C   0  0  0  0  0  0  0  0  0  0  0  0
   -1.8040   -1.6110    0.0000 C   0  0  0  0  0  0  0  0  0  0  0  0
   -1.8040   -2.4360    0.0000 C   0  0  0  0  0  0  0  0  0  0  0  0
   -1.0890   -2.8480    0.0000 C   0  0  0  0  0  0  0  0  0  0  0  0
   -2.5180   -2.8480    0.0000 C   0  0  0  0  0  0  0  0  0  0  0  0
   -0.3740   -2.4360    0.0000 C   0  0  0  0  0  0  0  0  0  0  0  0
   -2.5180   -3.6740    0.0000 C   0  0  2  0  0  0  0  0  0  0  0  0
   -1.8040   -4.0860    0.0000 C   0  0  0  0  0  0  0  0  0  0  0  0
   -3.2320   -4.0860    0.0000 O   0  0  0  0  0  0  0  0  0  0  0  0
   -0.3040    2.3560    0.0000 C   0  0  0  0  0  0  0  0  0  0  0  0
    0.4100    1.9440    0.0000 C   0  0  2  0  0  0  0  0  0  0  0  0
    1.1250    2.3560    0.0000 C   0  0  0  0  0  0  0  0  0  0  0  0
    1.8390    1.9440    0.0000 C   0  0  0  0  0  0  0  0  0  0  0  0
    3.9820    2.3560    0.0000 C   0  0  0  0  0  0  0  0  0  0  0  0
    3.2680    1.1190    0.0000 C   0  0  0  0  0  0  0  0  0  0  0  0
    2.5540    2.3560    0.0000 C   0  0  0  0  0  0  0  0  0  0  0  0
    0.4100    1.1190    0.0000 C   0  0  2  0  0  0  0  0  0  0  0  0
    1.1250    1.5320    0.0000 H   0  0  0  0  0  0  0  0  0  0  0  0
   -0.3740    0.0390    0.0000 C   0  0  2  0  0  0  0  0  0  0  0  0
   -0.3740   -0.7860    0.0000 H   0  0  0  0  0  0  0  0  0  0  0  0
   -0.3740    0.8640    0.0000 C   0  0  2  0  0  0  0  0  0  0  0  0
   -0.3740    1.6890    0.0000 C   0  0  0  0  0  0  0  0  0  0  0  0
    3.2680    1.9440    0.0000 C   0  0  0  0  0  0  0  0  0  0  0  0
    3.9820    1.5320    0.0000 O   0  0  0  0  0  0  0  0  0  0  0  0
   -1.0890   -3.6740    0.0000 C   0  0  2  0  0  0  0  0  0  0  0  0
   -0.3740   -4.0860    0.0000 O   0  0  0  0  0  0  0  0  0  0  0  0
  1  5  1  0  0  0  0
  1 27  1  0  0  0  0
  2  6  2  0  0  0  0
  2  7  1  0  0  0  0
  2 25  1  0  0  0  0
  3  4  1  0  0  0  0
  3 25  1  0  0  0  0
  4 23  1  0  0  0  0
  5  7  1  0  0  0  0
  6  8  1  0  0  0  0
  8  9  2  0  0  0  0
  9 10  1  0  0  0  0
  9 11  1  0  0  0  0
 10 12  2  0  0  0  0
 10 31  1  0  0  0  0
 11 13  1  0  0  0  0
 13 14  1  0  0  0  0
 13 15  1  6  0  0  0
 14 31  1  0  0  0  0
 17 16  1  6  0  0  0
 17 18  1  0  0  0  0
 18 19  1  0  0  0  0
 19 22  1  0  0  0  0
 20 29  1  0  0  0  0
 21 29  1  0  0  0  0
 22 29  1  0  0  0  0
 23 17  1  0  0  0  0
 23 24  1  6  0  0  0
 23 27  1  0  0  0  0
 25 26  1  6  0  0  0
 25 27  1  0  0  0  0
 27 28  1  1  0  0  0
 29 30  1  0  0  0  0
 31 32  1  1  0  0  0
M  END
>  <DATABASE_ID>
DB00136

>  <DATABASE_NAME>
drugbank

>  <SMILES>
O[C@H]1C[C@H](O)C\C(=C\C=C/2\[C@@H]3CC[C@H]([C@@H](CCCC(O)(C)C)C)[C@]3(CCC\2)C)\C1=C

>  <INCHI_IDENTIFIER>
InChI=1S/C27H44O3/c1-18(8-6-14-26(3,4)30)23-12-13-24-20(9-7-15-27(23,24)5)10-11-21-16-22(28)17-25(29)19(21)2/h10-11,18,22-25,28-30H,2,6-9,12-17H2,1,3-5H3/b20-10+,21-11-/t18-,22-,23-,24+,25+,27-/m1/s1

>  <INCHI_KEY>
InChIKey=GMRQFYUYWCNGIN-NKMMMXOESA-N

>  <JCHEM_ACCEPTOR_COUNT>
3

>  <JCHEM_AVERAGE_POLARIZABILITY>
51.024391

>  <JCHEM_BIOAVAILABILITY>
1

>  <JCHEM_DONOR_COUNT>
3

>  <JCHEM_EXACT_MASS>
416.32904

>  <JCHEM_FORMAL_CHARGE>
0

>  <JCHEM_FORMULA>
C27H44O3

>  <JCHEM_GHOSE_FILTER>
0

>  <JCHEM_IUPAC>
(1R,3S,5Z)-5-{2-[(1R,3aS,4E,7aR)-1-[(2R)-6-hydroxy-6-methylheptan-2-yl]-7a-methyl-octahydro-1H-inden-4-ylidene]ethylidene}-4-methylidenecyclohexane-1,3-diol

>  <ALOGPS_LOGP>
5.5100002

>  <JCHEM_LOGP>
4.3507409

>  <ALOGPS_LOGS>
-4.8000002

>  <JCHEM_MASS>
416.63651

>  <JCHEM_MDDR_LIKE_RULE>
1

>  <JCHEM_NUMBER_OF_RINGS>
3

>  <JCHEM_PHYSIOLOGICAL_CHARGE>
0

>  <JCHEM_PKA>
15.288748

>  <JCHEM_PKA_STRONGEST_ACIDIC>
14.392874

>  <JCHEM_PKA_STRONGEST_BASIC>
-1.2544419

>  <JCHEM_POLAR_SURFACE_AREA>
60.689999

>  <JCHEM_REFRACTIVITY>
126.5325

>  <JCHEM_ROTATABLE_BOND_COUNT>
6

>  <JCHEM_RULE_OF_FIVE>
1

>  <ALOGPS_SOLUBILITY>
6.67e-03 g/l

>  <JCHEM_TRADITIONAL_IUPAC>
calcitriol

>  <JCHEM_VEBER_RULE>
0

>  <DRUGBANK_ID>
DB00136

>  <DRUG_GROUPS>
approved; nutraceutical

>  <GENERIC_NAME>
Calcitriol

>  <SYNONYMS>
1,25-DHCC; 1,25-dihydroxycholecalciferol; 1α,25-dihydroxycholecalciferol; 1α,25-dihydroxyvitamin D3; 1α,25(OH)2D3

>  <BRANDS>
Calcijex; Calcitriol Oral Solution; Decostriol; Rocaltrol; Vectical

$$$$
Xanthophyll
 OpenBabel02121510022D

 42 43  0  0  1  0  0  0  0  0999 V2000
    3.1900   -8.4560    0.0000 O   0  0  0  0  0  0  0  0  0  0  0  0
    9.6200    8.4560    0.0000 O   0  0  0  0  0  0  0  0  0  0  0  0
    2.4750   -6.3940    0.0000 C   0  0  0  0  0  0  0  0  0  0  0  0
    3.1900   -5.9810    0.0000 C   0  0  3  0  0  0  0  0  0  0  0  0
    2.4750   -7.2190    0.0000 C   0  0  0  0  0  0  0  0  0  0  0  0
    3.1900   -7.6310    0.0000 C   0  0  3  0  0  0  0  0  0  0  0  0
    3.9040   -6.3940    0.0000 C   0  0  0  0  0  0  0  0  0  0  0  0
   10.3340    6.3940    0.0000 C   0  0  0  0  0  0  0  0  0  0  0  0
    2.0620   -5.6790    0.0000 C   0  0  0  0  0  0  0  0  0  0  0  0
    1.6500   -6.3940    0.0000 C   0  0  0  0  0  0  0  0  0  0  0  0
   10.3340    7.2190    0.0000 C   0  0  0  0  0  0  0  0  0  0  0  0
    3.9040   -7.2190    0.0000 C   0  0  0  0  0  0  0  0  0  0  0  0
    9.6200    7.6310    0.0000 C   0  0  3  0  0  0  0  0  0  0  0  0
    9.6200    5.9810    0.0000 C   0  0  0  0  0  0  0  0  0  0  0  0
    3.1900   -5.1560    0.0000 C   0  0  0  0  0  0  0  0  0  0  0  0
    8.9050    7.2190    0.0000 C   0  0  0  0  0  0  0  0  0  0  0  0
    8.9050    6.3940    0.0000 C   0  0  0  0  0  0  0  0  0  0  0  0
   10.7470    5.6790    0.0000 C   0  0  0  0  0  0  0  0  0  0  0  0
   11.1590    6.3940    0.0000 C   0  0  0  0  0  0  0  0  0  0  0  0
    4.6180   -5.9810    0.0000 C   0  0  0  0  0  0  0  0  0  0  0  0
    3.9040   -4.7440    0.0000 C   0  0  0  0  0  0  0  0  0  0  0  0
    9.6200    5.1560    0.0000 C   0  0  0  0  0  0  0  0  0  0  0  0
    8.1910    5.9810    0.0000 C   0  0  0  0  0  0  0  0  0  0  0  0
    3.9040   -3.9190    0.0000 C   0  0  0  0  0  0  0  0  0  0  0  0
    8.9050    4.7440    0.0000 C   0  0  0  0  0  0  0  0  0  0  0  0
    3.1900   -3.5060    0.0000 C   0  0  0  0  0  0  0  0  0  0  0  0
    8.9050    3.9190    0.0000 C   0  0  0  0  0  0  0  0  0  0  0  0
    4.6180   -3.5060    0.0000 C   0  0  0  0  0  0  0  0  0  0  0  0
    9.6200    3.5060    0.0000 C   0  0  0  0  0  0  0  0  0  0  0  0
    8.1910    3.5060    0.0000 C   0  0  0  0  0  0  0  0  0  0  0  0
    4.6180   -2.6810    0.0000 C   0  0  0  0  0  0  0  0  0  0  0  0
    8.1910    2.6810    0.0000 C   0  0  0  0  0  0  0  0  0  0  0  0
    5.3330   -2.2690    0.0000 C   0  0  0  0  0  0  0  0  0  0  0  0
    5.3330   -1.4440    0.0000 C   0  0  0  0  0  0  0  0  0  0  0  0
    7.4760    2.2690    0.0000 C   0  0  0  0  0  0  0  0  0  0  0  0
    7.4760    1.4440    0.0000 C   0  0  0  0  0  0  0  0  0  0  0  0
    4.6180   -1.0310    0.0000 C   0  0  0  0  0  0  0  0  0  0  0  0
    6.0480   -1.0310    0.0000 C   0  0  0  0  0  0  0  0  0  0  0  0
    6.7620    1.0310    0.0000 C   0  0  0  0  0  0  0  0  0  0  0  0
    8.1910    1.0310    0.0000 C   0  0  0  0  0  0  0  0  0  0  0  0
    6.0480   -0.2060    0.0000 C   0  0  0  0  0  0  0  0  0  0  0  0
    6.7620    0.2060    0.0000 C   0  0  0  0  0  0  0  0  0  0  0  0
  1  6  1  0  0  0  0
  2 13  1  0  0  0  0
  3  4  1  0  0  0  0
  3  5  1  0  0  0  0
  3  9  1  0  0  0  0
  3 10  1  0  0  0  0
  4  7  1  0  0  0  0
  4 15  1  0  0  0  0
  5  6  1  0  0  0  0
  6 12  1  0  0  0  0
  7 12  2  0  0  0  0
  7 20  1  0  0  0  0
  8 11  1  0  0  0  0
  8 14  1  0  0  0  0
  8 18  1  0  0  0  0
  8 19  1  0  0  0  0
 11 13  1  0  0  0  0
 13 16  1  0  0  0  0
 14 17  2  0  0  0  0
 14 22  1  0  0  0  0
 15 21  2  0  0  0  0
 16 17  1  0  0  0  0
 17 23  1  0  0  0  0
 21 24  1  0  0  0  0
 22 25  2  0  0  0  0
 24 26  1  0  0  0  0
 24 28  2  0  0  0  0
 25 27  1  0  0  0  0
 27 29  1  0  0  0  0
 27 30  2  0  0  0  0
 28 31  1  0  0  0  0
 30 32  1  0  0  0  0
 31 33  2  0  0  0  0
 32 35  2  0  0  0  0
 33 34  1  0  0  0  0
 34 37  1  0  0  0  0
 34 38  2  0  0  0  0
 35 36  1  0  0  0  0
 36 39  2  0  0  0  0
 36 40  1  0  0  0  0
 38 41  1  0  0  0  0
 39 42  1  0  0  0  0
 41 42  2  0  0  0  0
M  END
>  <DATABASE_ID>
DB00137

>  <DATABASE_NAME>
drugbank

>  <SMILES>
OC1CC(C)(C)C(\C=C\C(=C\C=C\C(=C\C=C\C=C(\C=C\C=C(\C=C\C2C(CC(O)C=C2C)(C)C)/C)/C)\C)\C)=C(C1)C

>  <INCHI_IDENTIFIER>
InChI=1S/C40H56O2/c1-29(17-13-19-31(3)21-23-37-33(5)25-35(41)27-39(37,7)8)15-11-12-16-30(2)18-14-20-32(4)22-24-38-34(6)26-36(42)28-40(38,9)10/h11-25,35-37,41-42H,26-28H2,1-10H3/b12-11+,17-13+,18-14+,23-21+,24-22+,29-15+,30-16+,31-19+,32-20+

>  <INCHI_KEY>
InChIKey=KBPHJBAIARWVSC-DKLMTRRASA-N

>  <JCHEM_ACCEPTOR_COUNT>
2

>  <JCHEM_AVERAGE_POLARIZABILITY>
72.788589

>  <JCHEM_BIOAVAILABILITY>
0

>  <JCHEM_DONOR_COUNT>
2

>  <JCHEM_EXACT_MASS>
568.42804

>  <JCHEM_FORMAL_CHARGE>
0

>  <JCHEM_FORMULA>
C40H56O2

>  <JCHEM_GHOSE_FILTER>
0

>  <JCHEM_IUPAC>
4-[(1E,3E,5E,7E,9E,11E,13E,15E,17E)-18-(4-hydroxy-2,6,6-trimethylcyclohex-1-en-1-yl)-3,7,12,16-tetramethyloctadeca-1,3,5,7,9,11,13,15,17-nonaen-1-yl]-3,5,5-trimethylcyclohex-2-en-1-ol

>  <ALOGPS_LOGP>
8.29

>  <JCHEM_LOGP>
8.550209

>  <ALOGPS_LOGS>
-5.8899999

>  <JCHEM_MASS>
568.8714

>  <JCHEM_MDDR_LIKE_RULE>
0

>  <JCHEM_NUMBER_OF_RINGS>
2

>  <JCHEM_PHYSIOLOGICAL_CHARGE>
0

>  <JCHEM_PKA>
18.907213

>  <JCHEM_PKA_STRONGEST_ACIDIC>
18.217272

>  <JCHEM_PKA_STRONGEST_BASIC>
-0.91394353

>  <JCHEM_POLAR_SURFACE_AREA>
40.459999

>  <JCHEM_REFRACTIVITY>
195.0634

>  <JCHEM_ROTATABLE_BOND_COUNT>
10

>  <JCHEM_RULE_OF_FIVE>
0

>  <ALOGPS_SOLUBILITY>
7.32e-04 g/l

>  <JCHEM_TRADITIONAL_IUPAC>
xanthophyll

>  <JCHEM_VEBER_RULE>
0

>  <DRUGBANK_ID>
DB00137

>  <DRUG_GROUPS>
approved; nutraceutical

>  <GENERIC_NAME>
Xanthophyll

$$$$
Succinic acid
 OpenBabel02121510022D

  8  7  0  0  0  0  0  0  0  0999 V2000
    2.0930    0.2060    0.0000 O   0  0  0  0  0  0  0  0  0  0  0  0
    5.6650   -0.2060    0.0000 O   0  0  0  0  0  0  0  0  0  0  0  0
    2.8070   -1.0310    0.0000 O   0  0  0  0  0  0  0  0  0  0  0  0
    4.9500    1.0310    0.0000 O   0  0  0  0  0  0  0  0  0  0  0  0
    3.5220    0.2060    0.0000 C   0  0  0  0  0  0  0  0  0  0  0  0
    4.2360   -0.2060    0.0000 C   0  0  0  0  0  0  0  0  0  0  0  0
    2.8070   -0.2060    0.0000 C   0  0  0  0  0  0  0  0  0  0  0  0
    4.9500    0.2060    0.0000 C   0  0  0  0  0  0  0  0  0  0  0  0
  1  7  1  0  0  0  0
  2  8  1  0  0  0  0
  3  7  2  0  0  0  0
  4  8  2  0  0  0  0
  5  6  1  0  0  0  0
  5  7  1  0  0  0  0
  6  8  1  0  0  0  0
M  END
>  <DATABASE_ID>
DB00139

>  <DATABASE_NAME>
drugbank

>  <SMILES>
OC(=O)CCC(O)=O

>  <INCHI_IDENTIFIER>
InChI=1S/C4H6O4/c5-3(6)1-2-4(7)8/h1-2H2,(H,5,6)(H,7,8)

>  <INCHI_KEY>
InChIKey=KDYFGRWQOYBRFD-UHFFFAOYSA-N

>  <JCHEM_ACCEPTOR_COUNT>
4

>  <JCHEM_AVERAGE_POLARIZABILITY>
10.141334

>  <JCHEM_BIOAVAILABILITY>
1

>  <JCHEM_DONOR_COUNT>
2

>  <JCHEM_EXACT_MASS>
118.02661

>  <JCHEM_FORMAL_CHARGE>
0

>  <JCHEM_FORMULA>
C4H6O4

>  <JCHEM_GHOSE_FILTER>
0

>  <JCHEM_IUPAC>
butanedioic acid

>  <ALOGPS_LOGP>
-0.52999997

>  <JCHEM_LOGP>
-0.39848298

>  <ALOGPS_LOGS>
0.25

>  <JCHEM_MASS>
118.088

>  <JCHEM_MDDR_LIKE_RULE>
0

>  <JCHEM_NUMBER_OF_RINGS>
0

>  <JCHEM_PHYSIOLOGICAL_CHARGE>
-2

>  <JCHEM_PKA>
5.6869121

>  <JCHEM_PKA_STRONGEST_ACIDIC>
3.5541666

>  <JCHEM_POLAR_SURFACE_AREA>
74.599998

>  <JCHEM_REFRACTIVITY>
23.537001

>  <JCHEM_ROTATABLE_BOND_COUNT>
3

>  <JCHEM_RULE_OF_FIVE>
1

>  <ALOGPS_SOLUBILITY>
2.11e+02 g/l

>  <JCHEM_TRADITIONAL_IUPAC>
succinic acid

>  <JCHEM_VEBER_RULE>
0

>  <DRUGBANK_ID>
DB00139

>  <DRUG_GROUPS>
approved; nutraceutical

>  <GENERIC_NAME>
Succinic acid

>  <SYNONYMS>
1,2-Ethanedicarboxylic acid; Amber acid; Asuccin; Bernsteinsaure; Butanedioic acid; Butanedionic acid; Spirit of amber

$$$$
Calcidiol
 OpenBabel02121510022D

 31 33  0  0  1  0  0  0  0  0999 V2000
   -1.0890    1.2760    0.0000 C   0  0  0  0  0  0  0  0  0  0  0  0
   -1.0890   -0.3740    0.0000 C   0  0  0  0  0  0  0  0  0  0  0  0
    0.4100   -0.2160    0.0000 C   0  0  0  0  0  0  0  0  0  0  0  0
    0.8950    0.4520    0.0000 C   0  0  0  0  0  0  0  0  0  0  0  0
   -1.8040    0.8640    0.0000 C   0  0  0  0  0  0  0  0  0  0  0  0
   -1.0890   -1.1980    0.0000 C   0  0  0  0  0  0  0  0  0  0  0  0
   -1.8040    0.0390    0.0000 C   0  0  0  0  0  0  0  0  0  0  0  0
   -1.8040   -1.6110    0.0000 C   0  0  0  0  0  0  0  0  0  0  0  0
   -1.8040   -2.4360    0.0000 C   0  0  0  0  0  0  0  0  0  0  0  0
   -1.0890   -2.8480    0.0000 C   0  0  0  0  0  0  0  0  0  0  0  0
   -2.5180   -2.8480    0.0000 C   0  0  0  0  0  0  0  0  0  0  0  0
   -1.0890   -3.6740    0.0000 C   0  0  0  0  0  0  0  0  0  0  0  0
   -0.3740   -2.4360    0.0000 C   0  0  0  0  0  0  0  0  0  0  0  0
   -2.5180   -3.6740    0.0000 C   0  0  2  0  0  0  0  0  0  0  0  0
   -1.8040   -4.0860    0.0000 C   0  0  0  0  0  0  0  0  0  0  0  0
   -3.2320   -4.0860    0.0000 O   0  0  0  0  0  0  0  0  0  0  0  0
   -0.3040    2.3560    0.0000 C   0  0  0  0  0  0  0  0  0  0  0  0
    0.4100    1.9440    0.0000 C   0  0  2  0  0  0  0  0  0  0  0  0
    1.1250    2.3560    0.0000 C   0  0  0  0  0  0  0  0  0  0  0  0
    1.8390    1.9440    0.0000 C   0  0  0  0  0  0  0  0  0  0  0  0
    3.9820    2.3560    0.0000 C   0  0  0  0  0  0  0  0  0  0  0  0
    3.2680    1.1190    0.0000 C   0  0  0  0  0  0  0  0  0  0  0  0
    2.5540    2.3560    0.0000 C   0  0  0  0  0  0  0  0  0  0  0  0
    0.4100    1.1190    0.0000 C   0  0  2  0  0  0  0  0  0  0  0  0
    1.1250    1.5320    0.0000 H   0  0  0  0  0  0  0  0  0  0  0  0
   -0.3740    0.0390    0.0000 C   0  0  2  0  0  0  0  0  0  0  0  0
   -0.3740   -0.7860    0.0000 H   0  0  0  0  0  0  0  0  0  0  0  0
   -0.3740    0.8640    0.0000 C   0  0  2  0  0  0  0  0  0  0  0  0
   -0.3740    1.6890    0.0000 C   0  0  0  0  0  0  0  0  0  0  0  0
    3.2680    1.9440    0.0000 C   0  0  0  0  0  0  0  0  0  0  0  0
    3.9820    1.5320    0.0000 O   0  0  0  0  0  0  0  0  0  0  0  0
  1  5  1  0  0  0  0
  1 28  1  0  0  0  0
  2  6  2  0  0  0  0
  2  7  1  0  0  0  0
  2 26  1  0  0  0  0
  3  4  1  0  0  0  0
  3 26  1  0  0  0  0
  4 24  1  0  0  0  0
  5  7  1  0  0  0  0
  6  8  1  0  0  0  0
  8  9  2  0  0  0  0
  9 10  1  0  0  0  0
  9 11  1  0  0  0  0
 10 12  1  0  0  0  0
 10 13  2  0  0  0  0
 11 14  1  0  0  0  0
 12 15  1  0  0  0  0
 14 15  1  0  0  0  0
 14 16  1  6  0  0  0
 18 17  1  6  0  0  0
 18 19  1  0  0  0  0
 19 20  1  0  0  0  0
 20 23  1  0  0  0  0
 21 30  1  0  0  0  0
 22 30  1  0  0  0  0
 23 30  1  0  0  0  0
 24 18  1  0  0  0  0
 24 25  1  6  0  0  0
 24 28  1  0  0  0  0
 26 27  1  6  0  0  0
 26 28  1  0  0  0  0
 28 29  1  1  0  0  0
 30 31  1  0  0  0  0
M  END
>  <DATABASE_ID>
DB00146

>  <DATABASE_NAME>
drugbank

>  <SMILES>
O[C@@H]1C\C(=C\C=C/2\[C@@H]3CC[C@H]([C@@H](CCCC(O)(C)C)C)[C@]3(CCC\2)C)\C(CC1)=C

>  <INCHI_IDENTIFIER>
InChI=1S/C27H44O2/c1-19-10-13-23(28)18-22(19)12-11-21-9-7-17-27(5)24(14-15-25(21)27)20(2)8-6-16-26(3,4)29/h11-12,20,23-25,28-29H,1,6-10,13-18H2,2-5H3/b21-11+,22-12-/t20-,23+,24-,25+,27-/m1/s1

>  <INCHI_KEY>
InChIKey=JWUBBDSIWDLEOM-DTOXIADCSA-N

>  <JCHEM_ACCEPTOR_COUNT>
2

>  <JCHEM_AVERAGE_POLARIZABILITY>
50.319515

>  <JCHEM_BIOAVAILABILITY>
1

>  <JCHEM_DONOR_COUNT>
2

>  <JCHEM_EXACT_MASS>
400.33414

>  <JCHEM_FORMAL_CHARGE>
0

>  <JCHEM_FORMULA>
C27H44O2

>  <JCHEM_GHOSE_FILTER>
0

>  <JCHEM_IUPAC>
(1S,3Z)-3-{2-[(1R,3aS,4E,7aR)-1-[(2R)-6-hydroxy-6-methylheptan-2-yl]-7a-methyl-octahydro-1H-inden-4-ylidene]ethylidene}-4-methylidenecyclohexan-1-ol

>  <ALOGPS_LOGP>
6.71

>  <JCHEM_LOGP>
5.654346

>  <ALOGPS_LOGS>
-5.2600002

>  <JCHEM_MASS>
400.63708

>  <JCHEM_MDDR_LIKE_RULE>
1

>  <JCHEM_NUMBER_OF_RINGS>
3

>  <JCHEM_PHYSIOLOGICAL_CHARGE>
0

>  <JCHEM_PKA>
18.530769

>  <JCHEM_PKA_STRONGEST_ACIDIC>
18.384342

>  <JCHEM_PKA_STRONGEST_BASIC>
-0.98425591

>  <JCHEM_POLAR_SURFACE_AREA>
40.459999

>  <JCHEM_REFRACTIVITY>
125.0606

>  <JCHEM_ROTATABLE_BOND_COUNT>
6

>  <JCHEM_RULE_OF_FIVE>
0

>  <ALOGPS_SOLUBILITY>
2.20e-03 g/l

>  <JCHEM_TRADITIONAL_IUPAC>
25-hydroxycholecalciferol

>  <JCHEM_VEBER_RULE>
0

>  <DRUGBANK_ID>
DB00146

>  <DRUG_GROUPS>
approved; nutraceutical

>  <GENERIC_NAME>
Calcidiol

>  <SYNONYMS>
(3β,5Z,7E)-9,10-secocholesta-5,7,10(19)-triene-3,25-diol; 25-hydroxycholecalciferol; 25-Hydroxyvitamin D3; Calcifediol; Calcifediol Anhydrous; Calcifediolum

>  <BRANDS>
Calderol; Caldiol; De Kai; Dedrogyl; Didrogyl; Hidroferol

$$$$
L-Leucine
 OpenBabel02121510022D

  9  8  0  0  1  0  0  0  0  0999 V2000
    1.7860   -0.2060    0.0000 O   0  0  0  0  0  0  0  0  0  0  0  0
   -1.7860    0.2060    0.0000 C   0  0  0  0  0  0  0  0  0  0  0  0
   -0.3570    0.2060    0.0000 C   0  0  0  0  0  0  0  0  0  0  0  0
    1.0720    0.2060    0.0000 C   0  0  0  0  0  0  0  0  0  0  0  0
    1.0720    1.0310    0.0000 O   0  0  0  0  0  0  0  0  0  0  0  0
    0.3570   -0.2060    0.0000 C   0  0  1  0  0  0  0  0  0  0  0  0
    0.3570   -1.0310    0.0000 N   0  0  0  0  0  0  0  0  0  0  0  0
   -1.0720   -0.2060    0.0000 C   0  0  0  0  0  0  0  0  0  0  0  0
   -1.0720   -1.0310    0.0000 C   0  0  0  0  0  0  0  0  0  0  0  0
  1  4  1  0  0  0  0
  2  8  1  0  0  0  0
  3  8  1  0  0  0  0
  4  5  2  0  0  0  0
  4  6  1  0  0  0  0
  6  3  1  1  0  0  0
  6  7  1  0  0  0  0
  8  9  1  0  0  0  0
M  END
>  <DATABASE_ID>
DB00149

>  <DATABASE_NAME>
drugbank

>  <SMILES>
OC(=O)[C@@H](N)CC(C)C

>  <INCHI_IDENTIFIER>
InChI=1S/C6H13NO2/c1-4(2)3-5(7)6(8)9/h4-5H,3,7H2,1-2H3,(H,8,9)/t5-/m0/s1

>  <INCHI_KEY>
InChIKey=ROHFNLRQFUQHCH-YFKPBYRVSA-N

>  <JCHEM_ACCEPTOR_COUNT>
3

>  <JCHEM_AVERAGE_POLARIZABILITY>
14.1598

>  <JCHEM_BIOAVAILABILITY>
1

>  <JCHEM_DONOR_COUNT>
2

>  <JCHEM_EXACT_MASS>
131.09464

>  <JCHEM_FORMAL_CHARGE>
0

>  <JCHEM_FORMULA>
C6H13NO2

>  <JCHEM_GHOSE_FILTER>
0

>  <JCHEM_IUPAC>
(2S)-2-amino-4-methylpentanoic acid

>  <ALOGPS_LOGP>
-1.8200001

>  <JCHEM_LOGP>
-1.5861572

>  <ALOGPS_LOGS>
-0.27000001

>  <JCHEM_MASS>
131.1729

>  <JCHEM_MDDR_LIKE_RULE>
0

>  <JCHEM_NUMBER_OF_RINGS>
0

>  <JCHEM_PHYSIOLOGICAL_CHARGE>
0

>  <JCHEM_PKA_STRONGEST_ACIDIC>
2.787709

>  <JCHEM_PKA_STRONGEST_BASIC>
9.5190144

>  <JCHEM_POLAR_SURFACE_AREA>
63.32

>  <JCHEM_REFRACTIVITY>
34.170898

>  <JCHEM_ROTATABLE_BOND_COUNT>
3

>  <JCHEM_RULE_OF_FIVE>
1

>  <ALOGPS_SOLUBILITY>
6.98e+01 g/l

>  <JCHEM_TRADITIONAL_IUPAC>
D-leucine

>  <JCHEM_VEBER_RULE>
0

>  <DRUGBANK_ID>
DB00149

>  <DRUG_GROUPS>
approved; nutraceutical

>  <GENERIC_NAME>
L-Leucine

>  <SYNONYMS>
(2S)-2-Amino-4-methylpentanoic acid; (2S)-alpha-2-Amino-4-methylvaleric acid; (2S)-alpha-Leucine; (S)-(+)-Leucine; (S)-Leucine; 2-Amino-4-methylvaleric acid; Leu; Leucine

$$$$
L-Tryptophan
 OpenBabel02121510022D

 15 16  0  0  1  0  0  0  0  0999 V2000
    5.9870    1.6180    0.0000 O   0  0  0  0  0  0  0  0  0  0  0  0
    4.6290    2.0620    0.0000 O   0  0  0  0  0  0  0  0  0  0  0  0
    3.8600   -1.6180    0.0000 N   0  0  0  0  0  0  0  0  0  0  0  0
    5.4740    0.0500    0.0000 N   0  0  0  0  0  0  0  0  0  0  0  0
    3.8600   -0.2900    0.0000 C   0  0  0  0  0  0  0  0  0  0  0  0
    4.1160    0.4940    0.0000 C   0  0  0  0  0  0  0  0  0  0  0  0
    3.0790   -0.5420    0.0000 C   0  0  0  0  0  0  0  0  0  0  0  0
    4.9230    0.6640    0.0000 C   0  0  1  0  0  0  0  0  0  0  0  0
    3.0790   -1.3670    0.0000 C   0  0  0  0  0  0  0  0  0  0  0  0
    4.3410   -0.9540    0.0000 C   0  0  0  0  0  0  0  0  0  0  0  0
    2.3640   -0.1290    0.0000 C   0  0  0  0  0  0  0  0  0  0  0  0
    2.3640   -1.7790    0.0000 C   0  0  0  0  0  0  0  0  0  0  0  0
    5.1800    1.4480    0.0000 C   0  0  0  0  0  0  0  0  0  0  0  0
    1.6500   -0.5420    0.0000 C   0  0  0  0  0  0  0  0  0  0  0  0
    1.6500   -1.3670    0.0000 C   0  0  0  0  0  0  0  0  0  0  0  0
  1 13  1  0  0  0  0
  2 13  2  0  0  0  0
  3  9  1  0  0  0  0
  3 10  1  0  0  0  0
  5  6  1  0  0  0  0
  5  7  1  0  0  0  0
  5 10  2  0  0  0  0
  7  9  1  0  0  0  0
  7 11  2  0  0  0  0
  8  6  1  1  0  0  0
  8  4  1  0  0  0  0
  8 13  1  0  0  0  0
  9 12  2  0  0  0  0
 11 14  1  0  0  0  0
 12 15  1  0  0  0  0
 14 15  2  0  0  0  0
M  END
>  <DATABASE_ID>
DB00150

>  <DATABASE_NAME>
drugbank

>  <SMILES>
OC(=O)[C@@H](N)Cc1c2c([nH]c1)cccc2

>  <INCHI_IDENTIFIER>
InChI=1S/C11H12N2O2/c12-9(11(14)15)5-7-6-13-10-4-2-1-3-8(7)10/h1-4,6,9,13H,5,12H2,(H,14,15)/t9-/m0/s1

>  <INCHI_KEY>
InChIKey=QIVBCDIJIAJPQS-VIFPVBQESA-N

>  <JCHEM_ACCEPTOR_COUNT>
3

>  <JCHEM_AVERAGE_POLARIZABILITY>
21.047415

>  <JCHEM_BIOAVAILABILITY>
1

>  <JCHEM_DONOR_COUNT>
3

>  <JCHEM_EXACT_MASS>
204.08987

>  <JCHEM_FORMAL_CHARGE>
0

>  <JCHEM_FORMULA>
C11H12N2O2

>  <JCHEM_GHOSE_FILTER>
0

>  <JCHEM_IUPAC>
(2S)-2-amino-3-(1H-indol-3-yl)propanoic acid

>  <ALOGPS_LOGP>
-1.1

>  <JCHEM_LOGP>
-1.085457

>  <ALOGPS_LOGS>
-2.1800001

>  <JCHEM_MASS>
204.2252

>  <JCHEM_MDDR_LIKE_RULE>
0

>  <JCHEM_NUMBER_OF_RINGS>
2

>  <JCHEM_PHYSIOLOGICAL_CHARGE>
0

>  <JCHEM_PKA>
16.156588

>  <JCHEM_PKA_STRONGEST_ACIDIC>
2.5439286

>  <JCHEM_PKA_STRONGEST_BASIC>
9.3960829

>  <JCHEM_POLAR_SURFACE_AREA>
79.110001

>  <JCHEM_REFRACTIVITY>
56.202801

>  <JCHEM_ROTATABLE_BOND_COUNT>
3

>  <JCHEM_RULE_OF_FIVE>
1

>  <ALOGPS_SOLUBILITY>
1.36e+00 g/l

>  <JCHEM_TRADITIONAL_IUPAC>
L-tryptophan

>  <JCHEM_VEBER_RULE>
0

>  <DRUGBANK_ID>
DB00150

>  <DRUG_GROUPS>
approved; nutraceutical

>  <GENERIC_NAME>
L-Tryptophan

>  <SYNONYMS>
(S)-alpha-Amino-beta-(3-indolyl)-propionic acid; (S)-Tryptophan; (S)-α-amino-1H-indole-3-propanoic acid; L-(-)-Tryptophan; L-(−)-tryptophan; L-β-3-indolylalanine; Trp; Tryptophan

>  <BRANDS>
Alti-Tryptophan

$$$$
Thiamine
 OpenBabel02121510022D

 18 19  0  0  0  0  0  0  0  0999 V2000
    1.9050    0.8500    0.0000 S   0  0  0  0  0  0  0  0  0  0  0  0
    3.3640    2.9390    0.0000 O   0  0  0  0  0  0  0  0  0  0  0  0
    2.3180   -0.4190    0.0000 N   0  3  0  0  0  0  0  0  0  0  0  0
    3.7460   -2.8940    0.0000 N   0  0  0  0  0  0  0  0  0  0  0  0
    4.4610   -1.6570    0.0000 N   0  0  0  0  0  0  0  0  0  0  0  0
    2.3180   -2.8940    0.0000 N   0  0  0  0  0  0  0  0  0  0  0  0
    2.9850    0.0660    0.0000 C   0  0  0  0  0  0  0  0  0  0  0  0
    2.3180   -1.2440    0.0000 C   0  0  0  0  0  0  0  0  0  0  0  0
    2.7300    0.8500    0.0000 C   0  0  0  0  0  0  0  0  0  0  0  0
    3.2150    1.5180    0.0000 C   0  0  0  0  0  0  0  0  0  0  0  0
    3.0320   -1.6570    0.0000 C   0  0  0  0  0  0  0  0  0  0  0  0
    1.6500    0.0660    0.0000 C   0  0  0  0  0  0  0  0  0  0  0  0
    3.7700   -0.1890    0.0000 C   0  0  0  0  0  0  0  0  0  0  0  0
    2.8790    2.2710    0.0000 C   0  0  0  0  0  0  0  0  0  0  0  0
    3.0320   -2.4820    0.0000 C   0  0  0  0  0  0  0  0  0  0  0  0
    3.7460   -1.2440    0.0000 C   0  0  0  0  0  0  0  0  0  0  0  0
    4.4610   -2.4820    0.0000 C   0  0  0  0  0  0  0  0  0  0  0  0
    5.1750   -2.8940    0.0000 C   0  0  0  0  0  0  0  0  0  0  0  0
  1  9  1  0  0  0  0
  1 12  1  0  0  0  0
  2 14  1  0  0  0  0
  3  7  1  0  0  0  0
  3  8  1  0  0  0  0
  3 12  2  0  0  0  0
  4 15  2  0  0  0  0
  4 17  1  0  0  0  0
  5 16  1  0  0  0  0
  5 17  2  0  0  0  0
  6 15  1  0  0  0  0
  7  9  2  0  0  0  0
  7 13  1  0  0  0  0
  8 11  1  0  0  0  0
  9 10  1  0  0  0  0
 10 14  1  0  0  0  0
 11 15  1  0  0  0  0
 11 16  2  0  0  0  0
 17 18  1  0  0  0  0
M  CHG  1   3   1
M  END
>  <DATABASE_ID>
DB00152

>  <DATABASE_NAME>
drugbank

>  <SMILES>
s1c[n+](Cc2cnc(nc2N)C)c(C)c1CCO

>  <INCHI_IDENTIFIER>
InChI=1S/C12H17N4OS/c1-8-11(3-4-17)18-7-16(8)6-10-5-14-9(2)15-12(10)13/h5,7,17H,3-4,6H2,1-2H3,(H2,13,14,15)/q+1

>  <INCHI_KEY>
InChIKey=JZRWCGZRTZMZEH-UHFFFAOYSA-N

>  <JCHEM_ACCEPTOR_COUNT>
4

>  <JCHEM_AVERAGE_POLARIZABILITY>
28.144123

>  <JCHEM_BIOAVAILABILITY>
1

>  <JCHEM_DONOR_COUNT>
2

>  <JCHEM_EXACT_MASS>
265.1123

>  <JCHEM_FORMAL_CHARGE>
1

>  <JCHEM_FORMULA>
C12H17N4OS

>  <JCHEM_GHOSE_FILTER>
0

>  <JCHEM_IUPAC>
3-[(4-amino-2-methylpyrimidin-5-yl)methyl]-5-(2-hydroxyethyl)-4-methyl-1,3-thiazol-3-ium

>  <ALOGPS_LOGP>
-2.1099999

>  <JCHEM_LOGP>
-3.0974126

>  <ALOGPS_LOGS>
-4.29

>  <JCHEM_MASS>
265.35501

>  <JCHEM_MDDR_LIKE_RULE>
0

>  <JCHEM_NUMBER_OF_RINGS>
2

>  <JCHEM_PHYSIOLOGICAL_CHARGE>
1

>  <JCHEM_PKA>
19.255648

>  <JCHEM_PKA_STRONGEST_ACIDIC>
15.504604

>  <JCHEM_PKA_STRONGEST_BASIC>
5.5375485

>  <JCHEM_POLAR_SURFACE_AREA>
75.910004

>  <JCHEM_REFRACTIVITY>
73.399696

>  <JCHEM_ROTATABLE_BOND_COUNT>
4

>  <JCHEM_RULE_OF_FIVE>
1

>  <ALOGPS_SOLUBILITY>
1.53e-02 g/l

>  <JCHEM_TRADITIONAL_IUPAC>
thiamine

>  <JCHEM_VEBER_RULE>
0

>  <DRUGBANK_ID>
DB00152

>  <DRUG_GROUPS>
approved; nutraceutical

>  <GENERIC_NAME>
Thiamine

>  <SYNONYMS>
Aneurin; Antiberiberi factor; Thiamin; thiamine(1+); thiamine(1+) ion; thiaminium; Vitamin B1

>  <BRANDS>
Betalin S; Betaxin; Biamine

>  <SALTS>
Thiamine Hydrochloride

$$$$
Ergocalciferol
 OpenBabel02121510022D

 31 33  0  0  1  0  0  0  0  0999 V2000
    1.6500   -3.9980    0.0000 O   0  0  0  0  0  0  0  0  0  0  0  0
    4.5080    0.9520    0.0000 C   0  0  2  0  0  0  0  0  0  0  0  0
    5.2890    1.2030    0.0000 C   0  0  2  0  0  0  0  0  0  0  0  0
    4.5080    0.1270    0.0000 C   0  0  1  0  0  0  0  0  0  0  0  0
    5.7700    0.5390    0.0000 C   0  0  0  0  0  0  0  0  0  0  0  0
    5.2890   -0.1250    0.0000 C   0  0  0  0  0  0  0  0  0  0  0  0
    3.7940    1.3640    0.0000 C   0  0  0  0  0  0  0  0  0  0  0  0
    5.5450    1.9870    0.0000 C   0  0  2  0  0  0  0  0  0  0  0  0
    3.7940   -0.2860    0.0000 C   0  0  0  0  0  0  0  0  0  0  0  0
    4.5080    1.7770    0.0000 C   0  0  0  0  0  0  0  0  0  0  0  0
    3.0790    0.9520    0.0000 C   0  0  0  0  0  0  0  0  0  0  0  0
    3.0790    0.1270    0.0000 C   0  0  0  0  0  0  0  0  0  0  0  0
    4.9940    2.6010    0.0000 C   0  0  0  0  0  0  0  0  0  0  0  0
    6.3520    2.1570    0.0000 C   0  0  0  0  0  0  0  0  0  0  0  0
    3.7940   -1.1110    0.0000 C   0  0  0  0  0  0  0  0  0  0  0  0
    6.6090    2.9420    0.0000 C   0  0  0  0  0  0  0  0  0  0  0  0
    3.0790   -1.5230    0.0000 C   0  0  0  0  0  0  0  0  0  0  0  0
    7.4160    3.1120    0.0000 C   0  0  1  0  0  0  0  0  0  0  0  0
    3.0790   -2.3480    0.0000 C   0  0  0  0  0  0  0  0  0  0  0  0
    7.6720    3.8960    0.0000 C   0  0  0  0  0  0  0  0  0  0  0  0
    2.3640   -2.7610    0.0000 C   0  0  0  0  0  0  0  0  0  0  0  0
    7.9670    2.4980    0.0000 C   0  0  0  0  0  0  0  0  0  0  0  0
    3.7940   -2.7610    0.0000 C   0  0  0  0  0  0  0  0  0  0  0  0
    2.3640   -3.5860    0.0000 C   0  0  2  0  0  0  0  0  0  0  0  0
    3.7940   -3.5860    0.0000 C   0  0  0  0  0  0  0  0  0  0  0  0
    3.0790   -3.9980    0.0000 C   0  0  0  0  0  0  0  0  0  0  0  0
    7.1210    4.5100    0.0000 C   0  0  0  0  0  0  0  0  0  0  0  0
    8.4790    4.0660    0.0000 C   0  0  0  0  0  0  0  0  0  0  0  0
    4.5080   -2.3480    0.0000 C   0  0  0  0  0  0  0  0  0  0  0  0
    5.9410    1.3050    0.0000 H   0  0  0  0  0  0  0  0  0  0  0  0
    4.5780   -0.5300    0.0000 H   0  0  0  0  0  0  0  0  0  0  0  0
  2  3  1  0  0  0  0
  2  4  1  0  0  0  0
  2  7  1  0  0  0  0
  2 10  1  1  0  0  0
  3  5  1  0  0  0  0
  3  8  1  0  0  0  0
  3 30  1  6  0  0  0
  4  6  1  0  0  0  0
  4  9  1  0  0  0  0
  4 31  1  6  0  0  0
  5  6  1  0  0  0  0
  7 11  1  0  0  0  0
  8 13  1  6  0  0  0
  8 14  1  0  0  0  0
  9 12  1  0  0  0  0
  9 15  2  0  0  0  0
 11 12  1  0  0  0  0
 14 16  2  0  0  0  0
 15 17  1  0  0  0  0
 17 19  2  0  0  0  0
 18 16  1  1  0  0  0
 18 20  1  0  0  0  0
 18 22  1  0  0  0  0
 19 21  1  0  0  0  0
 19 23  1  0  0  0  0
 20 27  1  0  0  0  0
 20 28  1  0  0  0  0
 21 24  1  0  0  0  0
 23 25  1  0  0  0  0
 23 29  2  0  0  0  0
 24  1  1  6  0  0  0
 24 26  1  0  0  0  0
 25 26  1  0  0  0  0
M  END
>  <DATABASE_ID>
DB00153

>  <DATABASE_NAME>
drugbank

>  <SMILES>
O[C@@H]1C\C(=C\C=C/2\[C@@H]3CC[C@H]([C@@H](\C=C\[C@@H](C(C)C)C)C)[C@]3(CCC\2)C)\C(CC1)=C

>  <INCHI_IDENTIFIER>
InChI=1S/C28H44O/c1-19(2)20(3)9-10-22(5)26-15-16-27-23(8-7-17-28(26,27)6)12-13-24-18-25(29)14-11-21(24)4/h9-10,12-13,19-20,22,25-27,29H,4,7-8,11,14-18H2,1-3,5-6H3/b10-9+,23-12+,24-13-/t20-,22+,25-,26+,27-,28+/m0/s1

>  <INCHI_KEY>
InChIKey=MECHNRXZTMCUDQ-RKHKHRCZSA-N

>  <JCHEM_ACCEPTOR_COUNT>
1

>  <JCHEM_AVERAGE_POLARIZABILITY>
50.733295

>  <JCHEM_BIOAVAILABILITY>
1

>  <JCHEM_DONOR_COUNT>
1

>  <JCHEM_EXACT_MASS>
396.3392

>  <JCHEM_FORMAL_CHARGE>
0

>  <JCHEM_FORMULA>
C28H44O

>  <JCHEM_GHOSE_FILTER>
0

>  <JCHEM_IUPAC>
(1S,3Z)-3-{2-[(1R,3aS,4E,7aR)-1-[(2R,3E,5R)-5,6-dimethylhept-3-en-2-yl]-7a-methyl-octahydro-1H-inden-4-ylidene]ethylidene}-4-methylidenecyclohexan-1-ol

>  <ALOGPS_LOGP>
7.5900002

>  <JCHEM_LOGP>
7.0505581

>  <ALOGPS_LOGS>
-5.96

>  <JCHEM_MASS>
396.64841

>  <JCHEM_MDDR_LIKE_RULE>
0

>  <JCHEM_NUMBER_OF_RINGS>
3

>  <JCHEM_PHYSIOLOGICAL_CHARGE>
0

>  <JCHEM_PKA_STRONGEST_ACIDIC>
18.384342

>  <JCHEM_PKA_STRONGEST_BASIC>
-1.3184891

>  <JCHEM_POLAR_SURFACE_AREA>
20.23

>  <JCHEM_REFRACTIVITY>
128.88969

>  <JCHEM_ROTATABLE_BOND_COUNT>
5

>  <JCHEM_RULE_OF_FIVE>
0

>  <ALOGPS_SOLUBILITY>
4.33e-04 g/l

>  <JCHEM_TRADITIONAL_IUPAC>
ergocalciferol

>  <JCHEM_VEBER_RULE>
1

>  <DRUGBANK_ID>
DB00153

>  <DRUG_GROUPS>
approved; nutraceutical

>  <GENERIC_NAME>
Ergocalciferol

>  <SYNONYMS>
Ergocalciferol; Vitamin D2

>  <BRANDS>
Calcidol; Deltalin; Drisdol

$$$$
Folic Acid
 OpenBabel02121510022D

 32 34  0  0  1  0  0  0  0  0999 V2000
   12.8600    0.2290    0.0000 O   0  0  0  0  0  0  0  0  0  0  0  0
    9.9990    1.0430    0.0000 O   0  0  0  0  0  0  0  0  0  0  0  0
   12.1500   -1.0120    0.0000 O   0  0  0  0  0  0  0  0  0  0  0  0
   12.8500    2.7040    0.0000 O   0  0  0  0  0  0  0  0  0  0  0  0
   11.4210    2.6980    0.0000 O   0  0  0  0  0  0  0  0  0  0  0  0
    3.5220   -0.2290    0.0000 O   0  0  0  0  0  0  0  0  0  0  0  0
   10.7180   -0.1920    0.0000 N   0  0  0  0  0  0  0  0  0  0  0  0
    7.1500   -1.4430    0.0000 N   0  0  0  0  0  0  0  0  0  0  0  0
    4.9740   -1.0250    0.0000 N   0  0  0  0  0  0  0  0  0  0  0  0
    3.5220   -2.7040    0.0000 N   0  0  0  0  0  0  0  0  0  0  0  0
    4.9740   -2.7320    0.0000 N   0  0  0  0  0  0  0  0  0  0  0  0
    2.8080   -1.4660    0.0000 N   0  0  0  0  0  0  0  0  0  0  0  0
    2.0930   -2.7040    0.0000 N   0  0  0  0  0  0  0  0  0  0  0  0
   11.4310    0.2230    0.0000 C   0  0  1  0  0  0  0  0  0  0  0  0
   11.4280    1.0480    0.0000 C   0  0  0  0  0  0  0  0  0  0  0  0
   12.1410    1.4630    0.0000 C   0  0  0  0  0  0  0  0  0  0  0  0
   10.0020    0.2180    0.0000 C   0  0  0  0  0  0  0  0  0  0  0  0
    9.2890   -0.1980    0.0000 C   0  0  0  0  0  0  0  0  0  0  0  0
   12.1470   -0.1870    0.0000 C   0  0  0  0  0  0  0  0  0  0  0  0
    7.8630   -1.0280    0.0000 C   0  0  0  0  0  0  0  0  0  0  0  0
    6.4340   -1.0340    0.0000 C   0  0  0  0  0  0  0  0  0  0  0  0
    9.2920   -1.0230    0.0000 C   0  0  0  0  0  0  0  0  0  0  0  0
    8.5730    0.2120    0.0000 C   0  0  0  0  0  0  0  0  0  0  0  0
    8.5790   -1.4380    0.0000 C   0  0  0  0  0  0  0  0  0  0  0  0
    7.8600   -0.2030    0.0000 C   0  0  0  0  0  0  0  0  0  0  0  0
    5.7210   -1.4490    0.0000 C   0  0  0  0  0  0  0  0  0  0  0  0
   12.1370    2.2880    0.0000 C   0  0  0  0  0  0  0  0  0  0  0  0
    4.2360   -1.4660    0.0000 C   0  0  0  0  0  0  0  0  0  0  0  0
    4.2360   -2.2910    0.0000 C   0  0  0  0  0  0  0  0  0  0  0  0
    5.7210   -2.3080    0.0000 C   0  0  0  0  0  0  0  0  0  0  0  0
    3.5220   -1.0540    0.0000 C   0  0  0  0  0  0  0  0  0  0  0  0
    2.8080   -2.2910    0.0000 C   0  0  0  0  0  0  0  0  0  0  0  0
  1 19  1  0  0  0  0
  2 17  2  0  0  0  0
  3 19  2  0  0  0  0
  4 27  1  0  0  0  0
  5 27  2  0  0  0  0
  6 31  2  0  0  0  0
  7 17  1  0  0  0  0
  8 20  1  0  0  0  0
  8 21  1  0  0  0  0
  9 26  2  0  0  0  0
  9 28  1  0  0  0  0
 10 29  1  0  0  0  0
 10 32  1  0  0  0  0
 11 29  1  0  0  0  0
 11 30  2  0  0  0  0
 12 31  1  0  0  0  0
 12 32  2  0  0  0  0
 13 32  1  0  0  0  0
 14  7  1  1  0  0  0
 14 15  1  0  0  0  0
 14 19  1  0  0  0  0
 15 16  1  0  0  0  0
 16 27  1  0  0  0  0
 17 18  1  0  0  0  0
 18 22  2  0  0  0  0
 18 23  1  0  0  0  0
 20 24  2  0  0  0  0
 20 25  1  0  0  0  0
 21 26  1  0  0  0  0
 22 24  1  0  0  0  0
 23 25  2  0  0  0  0
 26 30  1  0  0  0  0
 28 29  2  0  0  0  0
 28 31  1  0  0  0  0
M  END
>  <DATABASE_ID>
DB00158

>  <DATABASE_NAME>
drugbank

>  <SMILES>
O=C1N=C(Nc2ncc(nc12)CNc1ccc(cc1)C(=O)N[C@@H](CCC(O)=O)C(O)=O)N

>  <INCHI_IDENTIFIER>
InChI=1S/C19H19N7O6/c20-19-25-15-14(17(30)26-19)23-11(8-22-15)7-21-10-3-1-9(2-4-10)16(29)24-12(18(31)32)5-6-13(27)28/h1-4,8,12,21H,5-7H2,(H,24,29)(H,27,28)(H,31,32)(H3,20,22,25,26,30)/t12-/m0/s1

>  <INCHI_KEY>
InChIKey=OVBPIULPVIDEAO-LBPRGKRZSA-N

>  <JCHEM_ACCEPTOR_COUNT>
12

>  <JCHEM_AVERAGE_POLARIZABILITY>
42.056564

>  <JCHEM_BIOAVAILABILITY>
0

>  <JCHEM_DONOR_COUNT>
6

>  <JCHEM_EXACT_MASS>
441.13968

>  <JCHEM_FORMAL_CHARGE>
0

>  <JCHEM_FORMULA>
C19H19N7O6

>  <JCHEM_GHOSE_FILTER>
0

>  <JCHEM_IUPAC>
(2S)-2-[(4-{[(2-amino-4-oxo-1,4-dihydropteridin-6-yl)methyl]amino}phenyl)formamido]pentanedioic acid

>  <ALOGPS_LOGP>
-0.039999999

>  <JCHEM_LOGP>
-0.68224925

>  <ALOGPS_LOGS>
-3.76

>  <JCHEM_MASS>
441.39749

>  <JCHEM_MDDR_LIKE_RULE>
1

>  <JCHEM_NUMBER_OF_RINGS>
3

>  <JCHEM_PHYSIOLOGICAL_CHARGE>
-2

>  <JCHEM_PKA>
4.1732035

>  <JCHEM_PKA_STRONGEST_ACIDIC>
3.3738735

>  <JCHEM_PKA_STRONGEST_BASIC>
2.0868652

>  <JCHEM_POLAR_SURFACE_AREA>
208.99001

>  <JCHEM_REFRACTIVITY>
111.0112

>  <JCHEM_ROTATABLE_BOND_COUNT>
9

>  <JCHEM_RULE_OF_FIVE>
0

>  <ALOGPS_SOLUBILITY>
7.61e-02 g/l

>  <JCHEM_TRADITIONAL_IUPAC>
folic acid

>  <JCHEM_VEBER_RULE>
0

>  <DRUGBANK_ID>
DB00158

>  <DRUG_GROUPS>
approved; nutraceutical

>  <GENERIC_NAME>
Folic Acid

>  <SYNONYMS>
Folacin; Folate; PGA; Pteroyl-L-glutamate; Pteroyl-L-glutamic acid; Pteroyl-L-monoglutamic acid; Pteroylglutamic acid; Vitamin B9; Vitamin Bc; Vitamin M

>  <BRANDS>
Acfol; Fefol; Folvite

$$$$
Icosapent
 OpenBabel02121510022D

 22 21  0  0  0  0  0  0  0  0999 V2000
   12.8420  -10.9170    0.0000 C   0  0  0  0  0  0  0  0  0  0  0  0
   13.6780  -10.9170    0.0000 C   0  0  0  0  0  0  0  0  0  0  0  0
   12.0890  -11.3360    0.0000 C   0  0  0  0  0  0  0  0  0  0  0  0
   14.3890  -11.3360    0.0000 C   0  0  0  0  0  0  0  0  0  0  0  0
   11.3780  -10.9170    0.0000 C   0  0  0  0  0  0  0  0  0  0  0  0
   15.1000  -10.9170    0.0000 C   0  0  0  0  0  0  0  0  0  0  0  0
   10.5410  -10.9170    0.0000 C   0  0  0  0  0  0  0  0  0  0  0  0
   15.9370  -10.9170    0.0000 C   0  0  0  0  0  0  0  0  0  0  0  0
    9.8300  -11.3360    0.0000 C   0  0  0  0  0  0  0  0  0  0  0  0
   16.6900  -11.3360    0.0000 C   0  0  0  0  0  0  0  0  0  0  0  0
    9.0770  -10.9170    0.0000 C   0  0  0  0  0  0  0  0  0  0  0  0
   17.4010  -10.9170    0.0000 C   0  0  0  0  0  0  0  0  0  0  0  0
    8.3660  -11.3360    0.0000 C   0  0  0  0  0  0  0  0  0  0  0  0
   18.2380  -10.9170    0.0000 C   0  0  0  0  0  0  0  0  0  0  0  0
    7.6550  -10.9170    0.0000 C   0  0  0  0  0  0  0  0  0  0  0  0
   18.9490  -11.3360    0.0000 C   0  0  0  0  0  0  0  0  0  0  0  0
    6.9020  -11.3360    0.0000 O   0  0  0  0  0  0  0  0  0  0  0  0
    7.6550  -10.0810    0.0000 O   0  0  0  0  0  0  0  0  0  0  0  0
   19.7020  -10.9170    0.0000 C   0  0  0  0  0  0  0  0  0  0  0  0
   20.5380  -10.9170    0.0000 C   0  0  0  0  0  0  0  0  0  0  0  0
   21.2490  -11.3360    0.0000 C   0  0  0  0  0  0  0  0  0  0  0  0
   21.9600  -10.9170    0.0000 C   0  0  0  0  0  0  0  0  0  0  0  0
  1  2  2  0  0  0  0
  1  3  1  0  0  0  0
  2  4  1  0  0  0  0
  3  5  1  0  0  0  0
  4  6  1  0  0  0  0
  5  7  2  0  0  0  0
  6  8  2  0  0  0  0
  7  9  1  0  0  0  0
  8 10  1  0  0  0  0
  9 11  1  0  0  0  0
 10 12  1  0  0  0  0
 11 13  1  0  0  0  0
 12 14  2  0  0  0  0
 13 15  1  0  0  0  0
 14 16  1  0  0  0  0
 15 17  1  0  0  0  0
 15 18  2  0  0  0  0
 16 19  1  0  0  0  0
 19 20  2  0  0  0  0
 20 21  1  0  0  0  0
 21 22  1  0  0  0  0
M  END
>  <DATABASE_ID>
DB00159

>  <DATABASE_NAME>
drugbank

>  <SMILES>
OC(=O)CCC\C=C/C\C=C/C\C=C/C\C=C/C\C=C/CC

>  <INCHI_IDENTIFIER>
InChI=1S/C20H30O2/c1-2-3-4-5-6-7-8-9-10-11-12-13-14-15-16-17-18-19-20(21)22/h3-4,6-7,9-10,12-13,15-16H,2,5,8,11,14,17-19H2,1H3,(H,21,22)/b4-3-,7-6-,10-9-,13-12-,16-15-

>  <INCHI_KEY>
InChIKey=JAZBEHYOTPTENJ-JLNKQSITSA-N

>  <JCHEM_ACCEPTOR_COUNT>
2

>  <JCHEM_AVERAGE_POLARIZABILITY>
35.929317

>  <JCHEM_BIOAVAILABILITY>
0

>  <JCHEM_DONOR_COUNT>
1

>  <JCHEM_EXACT_MASS>
302.22458

>  <JCHEM_FORMAL_CHARGE>
0

>  <JCHEM_FORMULA>
C20H30O2

>  <JCHEM_GHOSE_FILTER>
0

>  <JCHEM_IUPAC>
(5Z,8Z,11Z,14Z,17Z)-icosa-5,8,11,14,17-pentaenoic acid

>  <ALOGPS_LOGP>
6.5300002

>  <JCHEM_LOGP>
6.2252493

>  <ALOGPS_LOGS>
-6.02

>  <JCHEM_MASS>
302.45099

>  <JCHEM_MDDR_LIKE_RULE>
0

>  <JCHEM_NUMBER_OF_RINGS>
0

>  <JCHEM_PHYSIOLOGICAL_CHARGE>
-1

>  <JCHEM_PKA_STRONGEST_ACIDIC>
4.8197718

>  <JCHEM_POLAR_SURFACE_AREA>
37.299999

>  <JCHEM_REFRACTIVITY>
101.0706

>  <JCHEM_ROTATABLE_BOND_COUNT>
13

>  <JCHEM_RULE_OF_FIVE>
0

>  <ALOGPS_SOLUBILITY>
2.89e-04 g/l

>  <JCHEM_TRADITIONAL_IUPAC>
eicosapentaenoic acid

>  <JCHEM_VEBER_RULE>
0

>  <DRUGBANK_ID>
DB00159

>  <DRUG_GROUPS>
approved; nutraceutical

>  <GENERIC_NAME>
Icosapent

>  <SYNONYMS>
all-cis-5,8,11,14,17-eicosapentaenoic acid; all-cis-5,8,11,14,17-icosapentaenoic acid; all-cis-icosa-5,8,11,14,17-pentaenoic acid; cis-5,8,11,14,17-EPA; Eicosapentaenoic acid; EPA; Timnodonic acid

$$$$
Vitamin A
 OpenBabel02121510022D

 21 21  0  0  0  0  0  0  0  0999 V2000
    0.0000    0.8250    0.0000 C   0  0  0  0  0  0  0  0  0  0  0  0
    0.7140    0.4120    0.0000 C   0  0  0  0  0  0  0  0  0  0  0  0
    0.7140   -0.4120    0.0000 C   0  0  0  0  0  0  0  0  0  0  0  0
    0.0000   -0.8250    0.0000 C   0  0  0  0  0  0  0  0  0  0  0  0
   -0.7140   -0.4120    0.0000 C   0  0  0  0  0  0  0  0  0  0  0  0
   -0.7140    0.4120    0.0000 C   0  0  0  0  0  0  0  0  0  0  0  0
    7.1450    0.8250    0.0000 C   0  0  0  0  0  0  0  0  0  0  0  0
    6.4300    0.4120    0.0000 C   0  0  0  0  0  0  0  0  0  0  0  0
    5.7160    0.8250    0.0000 C   0  0  0  0  0  0  0  0  0  0  0  0
    5.0010    0.4120    0.0000 C   0  0  0  0  0  0  0  0  0  0  0  0
    4.2870    0.8250    0.0000 C   0  0  0  0  0  0  0  0  0  0  0  0
    3.5720    0.4120    0.0000 C   0  0  0  0  0  0  0  0  0  0  0  0
    2.8580    0.8250    0.0000 C   0  0  0  0  0  0  0  0  0  0  0  0
    2.1430    0.4120    0.0000 C   0  0  0  0  0  0  0  0  0  0  0  0
    1.4290    0.8250    0.0000 C   0  0  0  0  0  0  0  0  0  0  0  0
    7.8590    0.4120    0.0000 O   0  0  0  0  0  0  0  0  0  0  0  0
    5.7160    1.6500    0.0000 C   0  0  0  0  0  0  0  0  0  0  0  0
    2.8580    1.6500    0.0000 C   0  0  0  0  0  0  0  0  0  0  0  0
    1.4290   -0.8250    0.0000 C   0  0  0  0  0  0  0  0  0  0  0  0
    0.4120    1.5390    0.0000 C   0  0  0  0  0  0  0  0  0  0  0  0
   -0.4120    1.5390    0.0000 C   0  0  0  0  0  0  0  0  0  0  0  0
  1  2  1  0  0  0  0
  1  6  1  0  0  0  0
  1 20  1  0  0  0  0
  1 21  1  0  0  0  0
  2  3  2  0  0  0  0
  2 15  1  0  0  0  0
  3  4  1  0  0  0  0
  3 19  1  0  0  0  0
  4  5  1  0  0  0  0
  5  6  1  0  0  0  0
  7  8  1  0  0  0  0
  7 16  1  0  0  0  0
  8  9  2  0  0  0  0
  9 10  1  0  0  0  0
  9 17  1  0  0  0  0
 10 11  2  0  0  0  0
 11 12  1  0  0  0  0
 12 13  2  0  0  0  0
 13 14  1  0  0  0  0
 13 18  1  0  0  0  0
 14 15  2  0  0  0  0
M  END
>  <DATABASE_ID>
DB00162

>  <DATABASE_NAME>
drugbank

>  <SMILES>
OC\C=C(\C=C\C=C(\C=C\C=1C(CCCC=1C)(C)C)/C)/C

>  <INCHI_IDENTIFIER>
InChI=1S/C20H30O/c1-16(8-6-9-17(2)13-15-21)11-12-19-18(3)10-7-14-20(19,4)5/h6,8-9,11-13,21H,7,10,14-15H2,1-5H3/b9-6+,12-11+,16-8+,17-13+

>  <INCHI_KEY>
InChIKey=FPIPGXGPPPQFEQ-OVSJKPMPSA-N

>  <JCHEM_ACCEPTOR_COUNT>
1

>  <JCHEM_AVERAGE_POLARIZABILITY>
36.42775

>  <JCHEM_BIOAVAILABILITY>
1

>  <JCHEM_DONOR_COUNT>
1

>  <JCHEM_EXACT_MASS>
286.22968

>  <JCHEM_FORMAL_CHARGE>
0

>  <JCHEM_FORMULA>
C20H30O

>  <JCHEM_GHOSE_FILTER>
1

>  <JCHEM_IUPAC>
(2E,4E,6E,8E)-3,7-dimethyl-9-(2,6,6-trimethylcyclohex-1-en-1-yl)nona-2,4,6,8-tetraen-1-ol

>  <ALOGPS_LOGP>
6.3800001

>  <JCHEM_LOGP>
4.6940932

>  <ALOGPS_LOGS>
-4.5799999

>  <JCHEM_MASS>
286.4516

>  <JCHEM_MDDR_LIKE_RULE>
0

>  <JCHEM_NUMBER_OF_RINGS>
1

>  <JCHEM_PHYSIOLOGICAL_CHARGE>
0

>  <JCHEM_PKA_STRONGEST_ACIDIC>
16.43577

>  <JCHEM_PKA_STRONGEST_BASIC>
-2.1707942

>  <JCHEM_POLAR_SURFACE_AREA>
20.23

>  <JCHEM_REFRACTIVITY>
97.923401

>  <JCHEM_ROTATABLE_BOND_COUNT>
5

>  <JCHEM_RULE_OF_FIVE>
1

>  <ALOGPS_SOLUBILITY>
7.58e-03 g/l

>  <JCHEM_TRADITIONAL_IUPAC>
α-sol

>  <JCHEM_VEBER_RULE>
1

>  <DRUGBANK_ID>
DB00162

>  <DRUG_GROUPS>
approved; nutraceutical

>  <GENERIC_NAME>
Vitamin A

>  <SYNONYMS>
all-trans-retinol; all-trans-retinyl alcohol; all-trans-vitamin A alcohol; Retinol; Vitamin A1

>  <BRANDS>
Alphalin; Chocola A

>  <SALTS>
Vitamin A palmitate

$$$$
Vitamin E
 OpenBabel02121510022D

 31 32  0  0  1  0  0  0  0  0999 V2000
    4.9740   -2.3010    0.0000 O   0  0  0  0  0  0  0  0  0  0  0  0
    2.0930   -0.6220    0.0000 O   0  0  0  0  0  0  0  0  0  0  0  0
    5.7220   -1.8770    0.0000 C   0  0  2  0  0  0  0  0  0  0  0  0
    6.5460   -1.8800    0.0000 C   0  0  0  0  0  0  0  0  0  0  0  0
    5.7220   -1.0180    0.0000 C   0  0  0  0  0  0  0  0  0  0  0  0
    6.9620   -1.1670    0.0000 C   0  0  0  0  0  0  0  0  0  0  0  0
    8.2020   -0.4580    0.0000 C   0  0  1  0  0  0  0  0  0  0  0  0
    7.7870   -1.1700    0.0000 C   0  0  0  0  0  0  0  0  0  0  0  0
    4.9740   -0.5940    0.0000 C   0  0  0  0  0  0  0  0  0  0  0  0
    9.0270   -0.4610    0.0000 C   0  0  0  0  0  0  0  0  0  0  0  0
    6.1310   -2.5930    0.0000 C   0  0  0  0  0  0  0  0  0  0  0  0
    4.2360   -1.0350    0.0000 C   0  0  0  0  0  0  0  0  0  0  0  0
    9.4420    0.2520    0.0000 C   0  0  0  0  0  0  0  0  0  0  0  0
    4.2360   -1.8600    0.0000 C   0  0  0  0  0  0  0  0  0  0  0  0
   10.2670    0.2490    0.0000 C   0  0  0  0  0  0  0  0  0  0  0  0
   10.6830    0.9620    0.0000 C   0  0  1  0  0  0  0  0  0  0  0  0
    7.7920    0.2580    0.0000 C   0  0  0  0  0  0  0  0  0  0  0  0
   11.5080    0.9590    0.0000 C   0  0  0  0  0  0  0  0  0  0  0  0
    3.5220   -0.6220    0.0000 C   0  0  0  0  0  0  0  0  0  0  0  0
    3.5220   -2.2720    0.0000 C   0  0  0  0  0  0  0  0  0  0  0  0
   11.9230    1.6720    0.0000 C   0  0  0  0  0  0  0  0  0  0  0  0
    2.8080   -1.8600    0.0000 C   0  0  0  0  0  0  0  0  0  0  0  0
   10.2730    1.6780    0.0000 C   0  0  0  0  0  0  0  0  0  0  0  0
    2.8080   -1.0350    0.0000 C   0  0  0  0  0  0  0  0  0  0  0  0
   12.7480    1.6680    0.0000 C   0  0  0  0  0  0  0  0  0  0  0  0
   13.1630    2.3810    0.0000 C   0  0  0  0  0  0  0  0  0  0  0  0
    3.5220    0.2030    0.0000 C   0  0  0  0  0  0  0  0  0  0  0  0
    3.5220   -3.0970    0.0000 C   0  0  0  0  0  0  0  0  0  0  0  0
    2.0930   -2.2720    0.0000 C   0  0  0  0  0  0  0  0  0  0  0  0
   12.7530    3.0970    0.0000 C   0  0  0  0  0  0  0  0  0  0  0  0
   13.9880    2.3780    0.0000 C   0  0  0  0  0  0  0  0  0  0  0  0
  1  3  1  0  0  0  0
  1 14  1  0  0  0  0
  2 24  1  0  0  0  0
  3  4  1  1  0  0  0
  3  5  1  0  0  0  0
  3 11  1  0  0  0  0
  4  6  1  0  0  0  0
  5  9  1  0  0  0  0
  6  8  1  0  0  0  0
  7  8  1  6  0  0  0
  7 10  1  0  0  0  0
  7 17  1  0  0  0  0
  9 12  1  0  0  0  0
 10 13  1  0  0  0  0
 12 14  1  0  0  0  0
 12 19  2  0  0  0  0
 13 15  1  0  0  0  0
 14 20  2  0  0  0  0
 16 15  1  6  0  0  0
 16 18  1  0  0  0  0
 16 23  1  0  0  0  0
 18 21  1  0  0  0  0
 19 24  1  0  0  0  0
 19 27  1  0  0  0  0
 20 22  1  0  0  0  0
 20 28  1  0  0  0  0
 21 25  1  0  0  0  0
 22 24  2  0  0  0  0
 22 29  1  0  0  0  0
 25 26  1  0  0  0  0
 26 30  1  0  0  0  0
 26 31  1  0  0  0  0
M  END
>  <DATABASE_ID>
DB00163

>  <DATABASE_NAME>
drugbank

>  <SMILES>
O1c2c(CC[C@]1(CCC[C@@H](CCC[C@@H](CCCC(C)C)C)C)C)c(C)c(O)c(C)c2C

>  <INCHI_IDENTIFIER>
InChI=1S/C29H50O2/c1-20(2)12-9-13-21(3)14-10-15-22(4)16-11-18-29(8)19-17-26-25(7)27(30)23(5)24(6)28(26)31-29/h20-22,30H,9-19H2,1-8H3/t21-,22-,29-/m1/s1

>  <INCHI_KEY>
InChIKey=GVJHHUAWPYXKBD-IEOSBIPESA-N

>  <JCHEM_ACCEPTOR_COUNT>
2

>  <JCHEM_AVERAGE_POLARIZABILITY>
55.288891

>  <JCHEM_BIOAVAILABILITY>
0

>  <JCHEM_DONOR_COUNT>
1

>  <JCHEM_EXACT_MASS>
430.38107

>  <JCHEM_FORMAL_CHARGE>
0

>  <JCHEM_FORMULA>
C29H50O2

>  <JCHEM_GHOSE_FILTER>
0

>  <JCHEM_IUPAC>
(2R)-2,5,7,8-tetramethyl-2-[(4R,8R)-4,8,12-trimethyltridecyl]-3,4-dihydro-2H-1-benzopyran-6-ol

>  <ALOGPS_LOGP>
8.8400002

>  <JCHEM_LOGP>
10.507717

>  <ALOGPS_LOGS>
-7.79

>  <JCHEM_MASS>
430.70609

>  <JCHEM_MDDR_LIKE_RULE>
0

>  <JCHEM_NUMBER_OF_RINGS>
2

>  <JCHEM_PHYSIOLOGICAL_CHARGE>
0

>  <JCHEM_PKA_STRONGEST_ACIDIC>
10.802178

>  <JCHEM_PKA_STRONGEST_BASIC>
-4.8526149

>  <JCHEM_POLAR_SURFACE_AREA>
29.459999

>  <JCHEM_REFRACTIVITY>
135.3741

>  <JCHEM_ROTATABLE_BOND_COUNT>
12

>  <JCHEM_RULE_OF_FIVE>
0

>  <ALOGPS_SOLUBILITY>
7.04e-06 g/l

>  <JCHEM_TRADITIONAL_IUPAC>
vitamin E

>  <JCHEM_VEBER_RULE>
0

>  <DRUGBANK_ID>
DB00163

>  <DRUG_GROUPS>
approved; nutraceutical

>  <GENERIC_NAME>
Vitamin E

>  <SYNONYMS>
(+)-alpha-tocopherol; (+)-α-tocopherol; (R,R,R)-alpha-tocopherol; (R,R,R)-α-tocopherol; alpha-Tocopherol; d-alpha-tocopherol; d-α-tocopherol

>  <BRANDS>
Amino-Opti-E; Aquasol E

$$$$
Pyridoxine
 OpenBabel02121510022D

 12 12  0  0  0  0  0  0  0  0999 V2000
    0.7140   -0.4120    0.0000 C   0  0  0  0  0  0  0  0  0  0  0  0
    0.7140    0.4120    0.0000 C   0  0  0  0  0  0  0  0  0  0  0  0
    0.0000   -0.8250    0.0000 N   0  0  0  0  0  0  0  0  0  0  0  0
    0.0000    0.8250    0.0000 C   0  0  0  0  0  0  0  0  0  0  0  0
   -0.7140    0.4120    0.0000 C   0  0  0  0  0  0  0  0  0  0  0  0
   -0.7140   -0.4120    0.0000 C   0  0  0  0  0  0  0  0  0  0  0  0
    1.4290    0.8250    0.0000 C   0  0  0  0  0  0  0  0  0  0  0  0
    2.1430    0.4120    0.0000 O   0  0  0  0  0  0  0  0  0  0  0  0
   -1.4290   -0.8250    0.0000 C   0  0  0  0  0  0  0  0  0  0  0  0
   -1.4290    0.8250    0.0000 O   0  0  0  0  0  0  0  0  0  0  0  0
    0.0000    1.6500    0.0000 C   0  0  0  0  0  0  0  0  0  0  0  0
   -0.7140    2.0620    0.0000 O   0  0  0  0  0  0  0  0  0  0  0  0
  1  2  2  0  0  0  0
  1  3  1  0  0  0  0
  2  4  1  0  0  0  0
  2  7  1  0  0  0  0
  3  6  2  0  0  0  0
  4  5  2  0  0  0  0
  4 11  1  0  0  0  0
  5  6  1  0  0  0  0
  5 10  1  0  0  0  0
  6  9  1  0  0  0  0
  7  8  1  0  0  0  0
 11 12  1  0  0  0  0
M  END
>  <DATABASE_ID>
DB00165

>  <DATABASE_NAME>
drugbank

>  <SMILES>
Oc1c(CO)c(cnc1C)CO

>  <INCHI_IDENTIFIER>
InChI=1S/C8H11NO3/c1-5-8(12)7(4-11)6(3-10)2-9-5/h2,10-12H,3-4H2,1H3

>  <INCHI_KEY>
InChIKey=LXNHXLLTXMVWPM-UHFFFAOYSA-N

>  <JCHEM_ACCEPTOR_COUNT>
4

>  <JCHEM_AVERAGE_POLARIZABILITY>
17.112305

>  <JCHEM_BIOAVAILABILITY>
1

>  <JCHEM_DONOR_COUNT>
3

>  <JCHEM_EXACT_MASS>
169.0739

>  <JCHEM_FORMAL_CHARGE>
0

>  <JCHEM_FORMULA>
C8H11NO3

>  <JCHEM_GHOSE_FILTER>
0

>  <JCHEM_IUPAC>
4,5-bis(hydroxymethyl)-2-methylpyridin-3-ol

>  <ALOGPS_LOGP>
-0.56999999

>  <JCHEM_LOGP>
-0.9513213

>  <ALOGPS_LOGS>
-1.02

>  <JCHEM_MASS>
169.1778

>  <JCHEM_MDDR_LIKE_RULE>
0

>  <JCHEM_NUMBER_OF_RINGS>
1

>  <JCHEM_PHYSIOLOGICAL_CHARGE>
0

>  <JCHEM_PKA>
14.53314

>  <JCHEM_PKA_STRONGEST_ACIDIC>
9.3974304

>  <JCHEM_PKA_STRONGEST_BASIC>
5.5849972

>  <JCHEM_POLAR_SURFACE_AREA>
73.580002

>  <JCHEM_REFRACTIVITY>
44.105301

>  <JCHEM_ROTATABLE_BOND_COUNT>
2

>  <JCHEM_RULE_OF_FIVE>
1

>  <ALOGPS_SOLUBILITY>
1.61e+01 g/l

>  <JCHEM_TRADITIONAL_IUPAC>
pyridoxine

>  <JCHEM_VEBER_RULE>
0

>  <DRUGBANK_ID>
DB00165

>  <DRUG_GROUPS>
approved; nutraceutical

>  <GENERIC_NAME>
Pyridoxine

>  <SYNONYMS>
3-hydroxy-4,5-bis(hydroxymethyl)-2-methylpyridine; Pyridoxol; Vitamin B6

>  <BRANDS>
Becilan; Beesix; Benadon; Bonasanit; Hexa-Betalin; Hexobion; Nestrex

>  <SALTS>
Pyridoxine hydrochloride

$$$$
L-Isoleucine
 OpenBabel02121510022D

  9  8  0  0  1  0  0  0  0  0999 V2000
    5.2220   -0.0780    0.0000 O   0  0  0  0  0  0  0  0  0  0  0  0
    4.5080    1.1590    0.0000 O   0  0  0  0  0  0  0  0  0  0  0  0
    3.7940   -0.9030    0.0000 N   0  0  0  0  0  0  0  0  0  0  0  0
    3.0790    0.3340    0.0000 C   0  0  2  0  0  0  0  0  0  0  0  0
    3.7940   -0.0780    0.0000 C   0  0  1  0  0  0  0  0  0  0  0  0
    2.3640   -0.0780    0.0000 C   0  0  0  0  0  0  0  0  0  0  0  0
    3.0790    1.1590    0.0000 C   0  0  0  0  0  0  0  0  0  0  0  0
    1.6500    0.3340    0.0000 C   0  0  0  0  0  0  0  0  0  0  0  0
    4.5080    0.3340    0.0000 C   0  0  0  0  0  0  0  0  0  0  0  0
  1  9  1  0  0  0  0
  2  9  2  0  0  0  0
  4  5  1  0  0  0  0
  4  6  1  6  0  0  0
  4  7  1  0  0  0  0
  5  3  1  1  0  0  0
  5  9  1  0  0  0  0
  6  8  1  0  0  0  0
M  END
>  <DATABASE_ID>
DB00167

>  <DATABASE_NAME>
drugbank

>  <SMILES>
OC(=O)[C@@H](N)[C@H](CC)C

>  <INCHI_IDENTIFIER>
InChI=1S/C6H13NO2/c1-3-4(2)5(7)6(8)9/h4-5H,3,7H2,1-2H3,(H,8,9)/t4-,5-/m0/s1

>  <INCHI_KEY>
InChIKey=AGPKZVBTJJNPAG-WHFBIAKZSA-N

>  <JCHEM_ACCEPTOR_COUNT>
3

>  <JCHEM_AVERAGE_POLARIZABILITY>
14.114543

>  <JCHEM_BIOAVAILABILITY>
1

>  <JCHEM_DONOR_COUNT>
2

>  <JCHEM_EXACT_MASS>
131.09464

>  <JCHEM_FORMAL_CHARGE>
0

>  <JCHEM_FORMULA>
C6H13NO2

>  <JCHEM_GHOSE_FILTER>
0

>  <JCHEM_IUPAC>
(2S,3S)-2-amino-3-methylpentanoic acid

>  <ALOGPS_LOGP>
-1.73

>  <JCHEM_LOGP>
-1.5084066

>  <ALOGPS_LOGS>
-0.059999999

>  <JCHEM_MASS>
131.1729

>  <JCHEM_MDDR_LIKE_RULE>
0

>  <JCHEM_NUMBER_OF_RINGS>
0

>  <JCHEM_PHYSIOLOGICAL_CHARGE>
0

>  <JCHEM_PKA_STRONGEST_ACIDIC>
2.7913082

>  <JCHEM_PKA_STRONGEST_BASIC>
9.5913458

>  <JCHEM_POLAR_SURFACE_AREA>
63.32

>  <JCHEM_REFRACTIVITY>
34.093899

>  <JCHEM_ROTATABLE_BOND_COUNT>
3

>  <JCHEM_RULE_OF_FIVE>
1

>  <ALOGPS_SOLUBILITY>
1.14e+02 g/l

>  <JCHEM_TRADITIONAL_IUPAC>
L-isoleucine

>  <JCHEM_VEBER_RULE>
0

>  <DRUGBANK_ID>
DB00167

>  <DRUG_GROUPS>
approved; nutraceutical

>  <GENERIC_NAME>
L-Isoleucine

>  <SYNONYMS>
(2S,3S)-2-Amino-3-methylpentanoic acid; 2-Amino-3-methylvaleric acid; alpha-amino-beta-methylvaleric acid; Ile; Isoleucine; α-amino-β-methylvaleric acid

$$$$
Cholecalciferol
 OpenBabel02121510022D

 30 32  0  0  1  0  0  0  0  0999 V2000
   -1.0890    1.2760    0.0000 C   0  0  0  0  0  0  0  0  0  0  0  0
   -1.0890   -0.3740    0.0000 C   0  0  0  0  0  0  0  0  0  0  0  0
    0.4100   -0.2160    0.0000 C   0  0  0  0  0  0  0  0  0  0  0  0
    0.8950    0.4520    0.0000 C   0  0  0  0  0  0  0  0  0  0  0  0
   -1.8040    0.8640    0.0000 C   0  0  0  0  0  0  0  0  0  0  0  0
   -1.0890   -1.1980    0.0000 C   0  0  0  0  0  0  0  0  0  0  0  0
   -1.8040    0.0390    0.0000 C   0  0  0  0  0  0  0  0  0  0  0  0
   -1.8040   -1.6110    0.0000 C   0  0  0  0  0  0  0  0  0  0  0  0
   -1.8040   -2.4360    0.0000 C   0  0  0  0  0  0  0  0  0  0  0  0
   -1.0890   -2.8480    0.0000 C   0  0  0  0  0  0  0  0  0  0  0  0
   -2.5180   -2.8480    0.0000 C   0  0  0  0  0  0  0  0  0  0  0  0
   -1.0890   -3.6740    0.0000 C   0  0  0  0  0  0  0  0  0  0  0  0
   -0.3740   -2.4360    0.0000 C   0  0  0  0  0  0  0  0  0  0  0  0
   -2.5180   -3.6740    0.0000 C   0  0  2  0  0  0  0  0  0  0  0  0
   -1.8040   -4.0860    0.0000 C   0  0  0  0  0  0  0  0  0  0  0  0
   -3.2320   -4.0860    0.0000 O   0  0  0  0  0  0  0  0  0  0  0  0
   -0.3040    2.3560    0.0000 C   0  0  0  0  0  0  0  0  0  0  0  0
    0.4100    1.9440    0.0000 C   0  0  2  0  0  0  0  0  0  0  0  0
    1.1250    2.3560    0.0000 C   0  0  0  0  0  0  0  0  0  0  0  0
    1.8390    1.9440    0.0000 C   0  0  0  0  0  0  0  0  0  0  0  0
    3.9820    2.3560    0.0000 C   0  0  0  0  0  0  0  0  0  0  0  0
    3.2680    1.9440    0.0000 C   0  0  0  0  0  0  0  0  0  0  0  0
    3.2680    1.1190    0.0000 C   0  0  0  0  0  0  0  0  0  0  0  0
    2.5540    2.3560    0.0000 C   0  0  0  0  0  0  0  0  0  0  0  0
    0.4100    1.1190    0.0000 C   0  0  2  0  0  0  0  0  0  0  0  0
    1.1250    1.5320    0.0000 H   0  0  0  0  0  0  0  0  0  0  0  0
   -0.3740    0.0390    0.0000 C   0  0  2  0  0  0  0  0  0  0  0  0
   -0.3740   -0.7860    0.0000 H   0  0  0  0  0  0  0  0  0  0  0  0
   -0.3740    0.8640    0.0000 C   0  0  2  0  0  0  0  0  0  0  0  0
   -0.3740    1.6890    0.0000 C   0  0  0  0  0  0  0  0  0  0  0  0
  1  5  1  0  0  0  0
  1 29  1  0  0  0  0
  2  6  2  0  0  0  0
  2  7  1  0  0  0  0
  2 27  1  0  0  0  0
  3  4  1  0  0  0  0
  3 27  1  0  0  0  0
  4 25  1  0  0  0  0
  5  7  1  0  0  0  0
  6  8  1  0  0  0  0
  8  9  2  0  0  0  0
  9 10  1  0  0  0  0
  9 11  1  0  0  0  0
 10 12  1  0  0  0  0
 10 13  2  0  0  0  0
 11 14  1  0  0  0  0
 12 15  1  0  0  0  0
 14 15  1  0  0  0  0
 14 16  1  6  0  0  0
 18 17  1  6  0  0  0
 18 19  1  0  0  0  0
 19 20  1  0  0  0  0
 20 24  1  0  0  0  0
 21 22  1  0  0  0  0
 22 23  1  0  0  0  0
 22 24  1  0  0  0  0
 25 18  1  0  0  0  0
 25 26  1  6  0  0  0
 25 29  1  0  0  0  0
 27 28  1  6  0  0  0
 27 29  1  0  0  0  0
 29 30  1  1  0  0  0
M  END
>  <DATABASE_ID>
DB00169

>  <DATABASE_NAME>
drugbank

>  <SMILES>
O[C@@H]1C\C(=C\C=C/2\[C@@H]3CC[C@H]([C@@H](CCCC(C)C)C)[C@]3(CCC\2)C)\C(CC1)=C

>  <INCHI_IDENTIFIER>
InChI=1S/C27H44O/c1-19(2)8-6-9-21(4)25-15-16-26-22(10-7-17-27(25,26)5)12-13-23-18-24(28)14-11-20(23)3/h12-13,19,21,24-26,28H,3,6-11,14-18H2,1-2,4-5H3/b22-12+,23-13-/t21-,24+,25-,26+,27-/m1/s1

>  <INCHI_KEY>
InChIKey=QYSXJUFSXHHAJI-YRZJJWOYSA-N

>  <JCHEM_ACCEPTOR_COUNT>
1

>  <JCHEM_AVERAGE_POLARIZABILITY>
49.600071

>  <JCHEM_BIOAVAILABILITY>
1

>  <JCHEM_DONOR_COUNT>
1

>  <JCHEM_EXACT_MASS>
384.3392

>  <JCHEM_FORMAL_CHARGE>
0

>  <JCHEM_FORMULA>
C27H44O

>  <JCHEM_GHOSE_FILTER>
0

>  <JCHEM_IUPAC>
(1S,3Z)-3-{2-[(1R,3aS,4E,7aR)-7a-methyl-1-[(2R)-6-methylheptan-2-yl]-octahydro-1H-inden-4-ylidene]ethylidene}-4-methylidenecyclohexan-1-ol

>  <ALOGPS_LOGP>
7.98

>  <JCHEM_LOGP>
7.1254606

>  <ALOGPS_LOGS>
-6.0100002

>  <JCHEM_MASS>
384.6377

>  <JCHEM_MDDR_LIKE_RULE>
1

>  <JCHEM_NUMBER_OF_RINGS>
3

>  <JCHEM_PHYSIOLOGICAL_CHARGE>
0

>  <JCHEM_PKA_STRONGEST_ACIDIC>
18.384342

>  <JCHEM_PKA_STRONGEST_BASIC>
-1.3184891

>  <JCHEM_POLAR_SURFACE_AREA>
20.23

>  <JCHEM_REFRACTIVITY>
123.2245

>  <JCHEM_ROTATABLE_BOND_COUNT>
6

>  <JCHEM_RULE_OF_FIVE>
0

>  <ALOGPS_SOLUBILITY>
3.80e-04 g/l

>  <JCHEM_TRADITIONAL_IUPAC>
vitamin D3

>  <JCHEM_VEBER_RULE>
1

>  <DRUGBANK_ID>
DB00169

>  <DRUG_GROUPS>
approved; nutraceutical

>  <GENERIC_NAME>
Cholecalciferol

>  <SYNONYMS>
(+)-vitamin D3; calciol; CC; Colecalciferol; Vitamin D3

>  <BRANDS>
Optimal-D; Vigantol

$$$$
Pravastatin
 OpenBabel02121510022D

 31 32  0  0  1  0  0  0  0  0999 V2000
    3.0790    0.8560    0.0000 O   0  0  0  0  0  0  0  0  0  0  0  0
    1.6500    3.3310    0.0000 O   0  0  0  0  0  0  0  0  0  0  0  0
    4.5020   -0.8230    0.0000 O   0  0  0  0  0  0  0  0  0  0  0  0
    1.6500    0.8560    0.0000 O   0  0  0  0  0  0  0  0  0  0  0  0
    5.2020   -2.0680    0.0000 O   0  0  0  0  0  0  0  0  0  0  0  0
    7.3310   -3.3310    0.0000 O   0  0  0  0  0  0  0  0  0  0  0  0
    5.9030   -3.3140    0.0000 O   0  0  0  0  0  0  0  0  0  0  0  0
    3.7940    2.0930    0.0000 C   0  0  1  0  0  0  0  0  0  0  0  0
    4.5310    1.6520    0.0000 C   0  0  2  0  0  0  0  0  0  0  0  0
    3.0790    1.6810    0.0000 C   0  0  2  0  0  0  0  0  0  0  0  0
    5.2780    2.0760    0.0000 C   0  0  2  0  0  0  0  0  0  0  0  0
    4.5210    0.8270    0.0000 C   0  0  0  0  0  0  0  0  0  0  0  0
    3.7940    2.9180    0.0000 C   0  0  0  0  0  0  0  0  0  0  0  0
    2.3640    2.0930    0.0000 C   0  0  0  0  0  0  0  0  0  0  0  0
    2.3640    2.9180    0.0000 C   0  0  1  0  0  0  0  0  0  0  0  0
    5.2780    2.9350    0.0000 C   0  0  0  0  0  0  0  0  0  0  0  0
    5.2310    0.4060    0.0000 C   0  0  0  0  0  0  0  0  0  0  0  0
    3.0790    3.3310    0.0000 C   0  0  0  0  0  0  0  0  0  0  0  0
    4.5310    3.3590    0.0000 C   0  0  0  0  0  0  0  0  0  0  0  0
    5.9910    1.6610    0.0000 C   0  0  0  0  0  0  0  0  0  0  0  0
    5.2220   -0.4190    0.0000 C   0  0  2  0  0  0  0  0  0  0  0  0
    5.9310   -0.8390    0.0000 C   0  0  0  0  0  0  0  0  0  0  0  0
    2.3640    0.4430    0.0000 C   0  0  0  0  0  0  0  0  0  0  0  0
    5.9220   -1.6640    0.0000 C   0  0  2  0  0  0  0  0  0  0  0  0
    2.3640   -0.3820    0.0000 C   0  0  2  0  0  0  0  0  0  0  0  0
    6.6310   -2.0850    0.0000 C   0  0  0  0  0  0  0  0  0  0  0  0
    1.6500   -0.7940    0.0000 C   0  0  0  0  0  0  0  0  0  0  0  0
    3.0790   -0.7940    0.0000 C   0  0  0  0  0  0  0  0  0  0  0  0
    1.6500   -1.6190    0.0000 C   0  0  0  0  0  0  0  0  0  0  0  0
    6.6220   -2.9100    0.0000 C   0  0  0  0  0  0  0  0  0  0  0  0
    3.7880    1.4330    0.0000 H   0  0  0  0  0  0  0  0  0  0  0  0
  1 23  1  0  0  0  0
  4 23  2  0  0  0  0
  6 30  1  0  0  0  0
  7 30  2  0  0  0  0
  8  9  1  0  0  0  0
  8 10  1  0  0  0  0
  8 13  1  0  0  0  0
  8 31  1  6  0  0  0
  9 11  1  0  0  0  0
  9 12  1  6  0  0  0
 10  1  1  1  0  0  0
 10 14  1  0  0  0  0
 11 16  1  0  0  0  0
 11 20  1  6  0  0  0
 12 17  1  0  0  0  0
 13 18  2  0  0  0  0
 13 19  1  0  0  0  0
 14 15  1  0  0  0  0
 15  2  1  6  0  0  0
 15 18  1  0  0  0  0
 16 19  2  0  0  0  0
 21 17  1  6  0  0  0
 21  3  1  0  0  0  0
 21 22  1  0  0  0  0
 24 22  1  6  0  0  0
 24  5  1  0  0  0  0
 24 26  1  0  0  0  0
 25 23  1  1  0  0  0
 25 27  1  0  0  0  0
 25 28  1  0  0  0  0
 26 30  1  0  0  0  0
 27 29  1  0  0  0  0
M  END
>  <DATABASE_ID>
DB00175

>  <DATABASE_NAME>
drugbank

>  <SMILES>
O(C(=O)[C@H](CC)C)[C@@H]1[C@H]2C(=C[C@@H](O)C1)C=C[C@H](C)[C@@H]2CC[C@@H](O)C[C@@H](O)CC(O)=O

>  <INCHI_IDENTIFIER>
InChI=1S/C23H36O7/c1-4-13(2)23(29)30-20-11-17(25)9-15-6-5-14(3)19(22(15)20)8-7-16(24)10-18(26)12-21(27)28/h5-6,9,13-14,16-20,22,24-26H,4,7-8,10-12H2,1-3H3,(H,27,28)/t13-,14-,16+,17+,18+,19-,20-,22-/m0/s1

>  <INCHI_KEY>
InChIKey=TUZYXOIXSAXUGO-PZAWKZKUSA-N

>  <JCHEM_ACCEPTOR_COUNT>
6

>  <JCHEM_AVERAGE_POLARIZABILITY>
46.559689

>  <JCHEM_BIOAVAILABILITY>
1

>  <JCHEM_DONOR_COUNT>
4

>  <JCHEM_EXACT_MASS>
424.24609

>  <JCHEM_FORMAL_CHARGE>
0

>  <JCHEM_FORMULA>
C23H36O7

>  <JCHEM_GHOSE_FILTER>
1

>  <JCHEM_IUPAC>
(3R,5R)-7-[(1S,2S,6S,8S,8aR)-6-hydroxy-2-methyl-8-{[(2S)-2-methylbutanoyl]oxy}-1,2,6,7,8,8a-hexahydronaphthalen-1-yl]-3,5-dihydroxyheptanoic acid

>  <ALOGPS_LOGP>
2.23

>  <JCHEM_LOGP>
1.6470916

>  <ALOGPS_LOGS>
-3.24

>  <JCHEM_MASS>
424.52771

>  <JCHEM_MDDR_LIKE_RULE>
0

>  <JCHEM_NUMBER_OF_RINGS>
2

>  <JCHEM_PHYSIOLOGICAL_CHARGE>
-1

>  <JCHEM_PKA>
14.533795

>  <JCHEM_PKA_STRONGEST_ACIDIC>
4.2122989

>  <JCHEM_PKA_STRONGEST_BASIC>
-2.7214651

>  <JCHEM_POLAR_SURFACE_AREA>
124.29

>  <JCHEM_REFRACTIVITY>
113.5979

>  <JCHEM_ROTATABLE_BOND_COUNT>
11

>  <JCHEM_RULE_OF_FIVE>
1

>  <ALOGPS_SOLUBILITY>
2.42e-01 g/l

>  <JCHEM_TRADITIONAL_IUPAC>
pravastatin

>  <JCHEM_VEBER_RULE>
0

>  <DRUGBANK_ID>
DB00175

>  <DRUG_GROUPS>
approved

>  <GENERIC_NAME>
Pravastatin

>  <BRANDS>
Elisor; Lipostat; Mevalotin; Pravachol; Pravaselect; Selipran

>  <SALTS>
Pravastatin Sodium

$$$$
Fluvoxamine
 OpenBabel02121510022D

 22 22  0  0  0  0  0  0  0  0999 V2000
    3.4120    3.0940    0.0000 F   0  0  0  0  0  0  0  0  0  0  0  0
    5.0620    3.0940    0.0000 F   0  0  0  0  0  0  0  0  0  0  0  0
    4.2360    3.9190    0.0000 F   0  0  0  0  0  0  0  0  0  0  0  0
    6.3800   -3.0940    0.0000 O   0  0  0  0  0  0  0  0  0  0  0  0
    3.5220   -1.4440    0.0000 O   0  0  0  0  0  0  0  0  0  0  0  0
    3.5220   -0.6190    0.0000 N   0  0  0  0  0  0  0  0  0  0  0  0
    2.0930   -3.0940    0.0000 N   0  0  0  0  0  0  0  0  0  0  0  0
    4.9510   -1.4440    0.0000 C   0  0  0  0  0  0  0  0  0  0  0  0
    4.9510   -0.6190    0.0000 C   0  0  0  0  0  0  0  0  0  0  0  0
    5.6660   -1.8560    0.0000 C   0  0  0  0  0  0  0  0  0  0  0  0
    4.2360   -0.2060    0.0000 C   0  0  0  0  0  0  0  0  0  0  0  0
    4.2360    0.6190    0.0000 C   0  0  0  0  0  0  0  0  0  0  0  0
    5.6660   -2.6810    0.0000 C   0  0  0  0  0  0  0  0  0  0  0  0
    3.5220    1.0310    0.0000 C   0  0  0  0  0  0  0  0  0  0  0  0
    4.9510    1.0310    0.0000 C   0  0  0  0  0  0  0  0  0  0  0  0
    4.2360    2.2690    0.0000 C   0  0  0  0  0  0  0  0  0  0  0  0
    3.5220    1.8560    0.0000 C   0  0  0  0  0  0  0  0  0  0  0  0
    4.9510    1.8560    0.0000 C   0  0  0  0  0  0  0  0  0  0  0  0
    4.2360    3.0940    0.0000 C   0  0  0  0  0  0  0  0  0  0  0  0
    2.8080   -1.8560    0.0000 C   0  0  0  0  0  0  0  0  0  0  0  0
    6.3800   -3.9190    0.0000 C   0  0  0  0  0  0  0  0  0  0  0  0
    2.8080   -2.6810    0.0000 C   0  0  0  0  0  0  0  0  0  0  0  0
  1 19  1  0  0  0  0
  2 19  1  0  0  0  0
  3 19  1  0  0  0  0
  4 13  1  0  0  0  0
  4 21  1  0  0  0  0
  5  6  1  0  0  0  0
  5 20  1  0  0  0  0
  6 11  2  3  0  0  0
  7 22  1  0  0  0  0
  8  9  1  0  0  0  0
  8 10  1  0  0  0  0
  9 11  1  0  0  0  0
 10 13  1  0  0  0  0
 11 12  1  0  0  0  0
 12 14  2  0  0  0  0
 12 15  1  0  0  0  0
 14 17  1  0  0  0  0
 15 18  2  0  0  0  0
 16 17  2  0  0  0  0
 16 18  1  0  0  0  0
 16 19  1  0  0  0  0
 20 22  1  0  0  0  0
M  END
>  <DATABASE_ID>
DB00176

>  <DATABASE_NAME>
drugbank

>  <SMILES>
FC(F)(F)c1ccc(cc1)C(=NOCCN)CCCCOC

>  <INCHI_IDENTIFIER>
InChI=1S/C15H21F3N2O2/c1-21-10-3-2-4-14(20-22-11-9-19)12-5-7-13(8-6-12)15(16,17)18/h5-8H,2-4,9-11,19H2,1H3/b20-14+

>  <INCHI_KEY>
InChIKey=CJOFXWAVKWHTFT-XSFVSMFZSA-N

>  <JCHEM_ACCEPTOR_COUNT>
4

>  <JCHEM_AVERAGE_POLARIZABILITY>
32.44223

>  <JCHEM_BIOAVAILABILITY>
1

>  <JCHEM_DONOR_COUNT>
1

>  <JCHEM_EXACT_MASS>
318.15552

>  <JCHEM_FORMAL_CHARGE>
0

>  <JCHEM_FORMULA>
C15H21F3N2O2

>  <JCHEM_GHOSE_FILTER>
1

>  <JCHEM_IUPAC>
(2-aminoethoxy)({5-methoxy-1-[4-(trifluoromethyl)phenyl]pentylidene})amine

>  <ALOGPS_LOGP>
2.8900001

>  <JCHEM_LOGP>
2.7953196

>  <ALOGPS_LOGS>
-4.6399999

>  <JCHEM_MASS>
318.33459

>  <JCHEM_MDDR_LIKE_RULE>
0

>  <JCHEM_NUMBER_OF_RINGS>
1

>  <JCHEM_PHYSIOLOGICAL_CHARGE>
1

>  <JCHEM_PKA_STRONGEST_BASIC>
9.1630297

>  <JCHEM_POLAR_SURFACE_AREA>
56.84

>  <JCHEM_REFRACTIVITY>
79.197098

>  <JCHEM_ROTATABLE_BOND_COUNT>
10

>  <JCHEM_RULE_OF_FIVE>
1

>  <ALOGPS_SOLUBILITY>
7.34e-03 g/l

>  <JCHEM_TRADITIONAL_IUPAC>
(2-aminoethoxy)({5-methoxy-1-[4-(trifluoromethyl)phenyl]pentylidene})amine

>  <JCHEM_VEBER_RULE>
0

>  <DRUGBANK_ID>
DB00176

>  <DRUG_GROUPS>
approved; investigational

>  <GENERIC_NAME>
Fluvoxamine

>  <SYNONYMS>
Fluvoxamina; Fluvoxaminum

>  <BRANDS>
Dumirox; Faverin; Fevarin; Floxyfral; Luvox; Maveral

>  <SALTS>
Fluvoxamine maleate

$$$$
Valsartan
 OpenBabel02121510022D

 32 34  0  0  1  0  0  0  0  0999 V2000
    2.0930    1.2210    0.0000 O   0  0  0  0  0  0  0  0  0  0  0  0
    4.9510   -0.4290    0.0000 O   0  0  0  0  0  0  0  0  0  0  0  0
    2.8080   -0.0170    0.0000 O   0  0  0  0  0  0  0  0  0  0  0  0
    4.2360    0.8080    0.0000 N   0  0  0  0  0  0  0  0  0  0  0  0
    7.8560    1.2930    0.0000 N   0  0  0  0  0  0  0  0  0  0  0  0
    9.1910    1.2930    0.0000 N   0  0  0  0  0  0  0  0  0  0  0  0
    8.1110    2.0780    0.0000 N   0  0  0  0  0  0  0  0  0  0  0  0
    8.9360    2.0780    0.0000 N   0  0  0  0  0  0  0  0  0  0  0  0
    3.5220    1.2210    0.0000 C   0  0  1  0  0  0  0  0  0  0  0  0
    3.5220    2.0460    0.0000 C   0  0  0  0  0  0  0  0  0  0  0  0
    4.9510    1.2210    0.0000 C   0  0  0  0  0  0  0  0  0  0  0  0
    4.2360   -0.0170    0.0000 C   0  0  0  0  0  0  0  0  0  0  0  0
    2.8080    2.4580    0.0000 C   0  0  0  0  0  0  0  0  0  0  0  0
    4.2360    2.4580    0.0000 C   0  0  0  0  0  0  0  0  0  0  0  0
    3.5220   -0.4290    0.0000 C   0  0  0  0  0  0  0  0  0  0  0  0
    2.8080    0.8080    0.0000 C   0  0  0  0  0  0  0  0  0  0  0  0
    5.6660    0.8080    0.0000 C   0  0  0  0  0  0  0  0  0  0  0  0
    3.5220   -1.2540    0.0000 C   0  0  0  0  0  0  0  0  0  0  0  0
    2.8080   -1.6670    0.0000 C   0  0  0  0  0  0  0  0  0  0  0  0
    6.3800    1.2210    0.0000 C   0  0  0  0  0  0  0  0  0  0  0  0
    5.6660   -0.0170    0.0000 C   0  0  0  0  0  0  0  0  0  0  0  0
    7.0940   -0.0170    0.0000 C   0  0  0  0  0  0  0  0  0  0  0  0
    7.0940    0.8080    0.0000 C   0  0  0  0  0  0  0  0  0  0  0  0
    6.3800   -0.4290    0.0000 C   0  0  0  0  0  0  0  0  0  0  0  0
    2.8080   -2.4920    0.0000 C   0  0  0  0  0  0  0  0  0  0  0  0
    7.8090   -0.4290    0.0000 C   0  0  0  0  0  0  0  0  0  0  0  0
    8.5230   -0.0170    0.0000 C   0  0  0  0  0  0  0  0  0  0  0  0
    7.8090   -1.2540    0.0000 C   0  0  0  0  0  0  0  0  0  0  0  0
    9.2380   -0.4290    0.0000 C   0  0  0  0  0  0  0  0  0  0  0  0
    8.5230   -1.6670    0.0000 C   0  0  0  0  0  0  0  0  0  0  0  0
    8.5230    0.8080    0.0000 C   0  0  0  0  0  0  0  0  0  0  0  0
    9.2380   -1.2540    0.0000 C   0  0  0  0  0  0  0  0  0  0  0  0
  1 16  1  0  0  0  0
  2 12  2  0  0  0  0
  3 16  2  0  0  0  0
  4 11  1  0  0  0  0
  4 12  1  0  0  0  0
  5  7  1  0  0  0  0
  5 31  2  0  0  0  0
  6  8  2  0  0  0  0
  6 31  1  0  0  0  0
  7  8  1  0  0  0  0
  9  4  1  6  0  0  0
  9 10  1  0  0  0  0
  9 16  1  0  0  0  0
 10 13  1  0  0  0  0
 10 14  1  0  0  0  0
 11 17  1  0  0  0  0
 12 15  1  0  0  0  0
 15 18  1  0  0  0  0
 17 20  2  0  0  0  0
 17 21  1  0  0  0  0
 18 19  1  0  0  0  0
 19 25  1  0  0  0  0
 20 23  1  0  0  0  0
 21 24  2  0  0  0  0
 22 23  2  0  0  0  0
 22 24  1  0  0  0  0
 22 26  1  0  0  0  0
 26 27  1  0  0  0  0
 26 28  2  0  0  0  0
 27 29  2  0  0  0  0
 27 31  1  0  0  0  0
 28 30  1  0  0  0  0
 29 32  1  0  0  0  0
 30 32  2  0  0  0  0
M  END
>  <DATABASE_ID>
DB00177

>  <DATABASE_NAME>
drugbank

>  <SMILES>
OC(=O)[C@@H](N(Cc1ccc(cc1)-c1ccccc1-c1nn[nH]n1)C(=O)CCCC)C(C)C

>  <INCHI_IDENTIFIER>
InChI=1S/C24H29N5O3/c1-4-5-10-21(30)29(22(16(2)3)24(31)32)15-17-11-13-18(14-12-17)19-8-6-7-9-20(19)23-25-27-28-26-23/h6-9,11-14,16,22H,4-5,10,15H2,1-3H3,(H,31,32)(H,25,26,27,28)/t22-/m0/s1

>  <INCHI_KEY>
InChIKey=ACWBQPMHZXGDFX-QFIPXVFZSA-N

>  <JCHEM_ACCEPTOR_COUNT>
6

>  <JCHEM_AVERAGE_POLARIZABILITY>
47.273148

>  <JCHEM_BIOAVAILABILITY>
1

>  <JCHEM_DONOR_COUNT>
2

>  <JCHEM_EXACT_MASS>
435.22705

>  <JCHEM_FORMAL_CHARGE>
0

>  <JCHEM_FORMULA>
C24H29N5O3

>  <JCHEM_GHOSE_FILTER>
0

>  <JCHEM_IUPAC>
(2S)-3-methyl-2-[N-({4-[2-(2H-1,2,3,4-tetrazol-5-yl)phenyl]phenyl}methyl)pentanamido]butanoic acid

>  <ALOGPS_LOGP>
3.6800001

>  <JCHEM_LOGP>
5.2693791

>  <ALOGPS_LOGS>
-4.27

>  <JCHEM_MASS>
435.5188

>  <JCHEM_MDDR_LIKE_RULE>
1

>  <JCHEM_NUMBER_OF_RINGS>
3

>  <JCHEM_PHYSIOLOGICAL_CHARGE>
-1

>  <JCHEM_PKA>
7.3998179

>  <JCHEM_PKA_STRONGEST_ACIDIC>
4.3663559

>  <JCHEM_PKA_STRONGEST_BASIC>
-0.11251135

>  <JCHEM_POLAR_SURFACE_AREA>
112.07

>  <JCHEM_REFRACTIVITY>
134.7733

>  <JCHEM_ROTATABLE_BOND_COUNT>
10

>  <JCHEM_RULE_OF_FIVE>
0

>  <ALOGPS_SOLUBILITY>
2.34e-02 g/l

>  <JCHEM_TRADITIONAL_IUPAC>
valsartan

>  <JCHEM_VEBER_RULE>
0

>  <DRUGBANK_ID>
DB00177

>  <DRUG_GROUPS>
approved; investigational

>  <GENERIC_NAME>
Valsartan

>  <BRANDS>
Diovan

$$$$
Ramipril
 OpenBabel02121510022D

 32 34  0  0  1  0  0  0  0  0999 V2000
    2.8220   -1.1480    0.0000 O   0  0  0  0  0  0  0  0  0  0  0  0
    2.1620   -3.4870    0.0000 O   0  0  0  0  0  0  0  0  0  0  0  0
    2.1620   -2.0580    0.0000 O   0  0  0  0  0  0  0  0  0  0  0  0
    4.7750    2.0890    0.0000 O   0  0  0  0  0  0  0  0  0  0  0  0
    3.4160    1.6470    0.0000 O   0  0  0  0  0  0  0  0  0  0  0  0
    3.8840   -2.1050    0.0000 N   0  0  0  0  0  0  0  0  0  0  0  0
    3.9260    0.0780    0.0000 N   0  0  0  0  0  0  0  0  0  0  0  0
    4.6690   -3.1850    0.0000 C   0  0  2  0  0  0  0  0  0  0  0  0
    4.6690   -2.3600    0.0000 C   0  0  2  0  0  0  0  0  0  0  0  0
    3.8840   -3.4400    0.0000 C   0  0  0  0  0  0  0  0  0  0  0  0
    5.4500   -3.4360    0.0000 C   0  0  0  0  0  0  0  0  0  0  0  0
    5.4500   -2.1080    0.0000 C   0  0  0  0  0  0  0  0  0  0  0  0
    3.3990   -2.7720    0.0000 C   0  0  1  0  0  0  0  0  0  0  0  0
    5.9310   -2.7720    0.0000 C   0  0  0  0  0  0  0  0  0  0  0  0
    3.6290   -1.3200    0.0000 C   0  0  0  0  0  0  0  0  0  0  0  0
    2.5740   -2.7720    0.0000 C   0  0  0  0  0  0  0  0  0  0  0  0
    4.1810   -0.7070    0.0000 C   0  0  2  0  0  0  0  0  0  0  0  0
    4.9880   -0.8780    0.0000 C   0  0  0  0  0  0  0  0  0  0  0  0
    4.4780    0.6910    0.0000 C   0  0  1  0  0  0  0  0  0  0  0  0
    5.2850    0.5190    0.0000 C   0  0  0  0  0  0  0  0  0  0  0  0
    4.2230    1.4760    0.0000 C   0  0  0  0  0  0  0  0  0  0  0  0
    5.8370    1.1330    0.0000 C   0  0  0  0  0  0  0  0  0  0  0  0
    6.6440    0.9610    0.0000 C   0  0  0  0  0  0  0  0  0  0  0  0
    6.8990    0.1760    0.0000 C   0  0  0  0  0  0  0  0  0  0  0  0
    7.1960    1.5740    0.0000 C   0  0  0  0  0  0  0  0  0  0  0  0
    4.5200    2.8740    0.0000 C   0  0  0  0  0  0  0  0  0  0  0  0
    7.7060    0.0050    0.0000 C   0  0  0  0  0  0  0  0  0  0  0  0
    8.0040    1.4030    0.0000 C   0  0  0  0  0  0  0  0  0  0  0  0
    5.0720    3.4870    0.0000 C   0  0  0  0  0  0  0  0  0  0  0  0
    8.2580    0.6180    0.0000 C   0  0  0  0  0  0  0  0  0  0  0  0
    4.6700   -3.8450    0.0000 H   0  0  0  0  0  0  0  0  0  0  0  0
    4.6700   -1.7000    0.0000 H   0  0  0  0  0  0  0  0  0  0  0  0
  1 15  2  0  0  0  0
  2 16  1  0  0  0  0
  3 16  2  0  0  0  0
  4 21  1  0  0  0  0
  4 26  1  0  0  0  0
  5 21  2  0  0  0  0
  6  9  1  0  0  0  0
  6 13  1  0  0  0  0
  6 15  1  0  0  0  0
  8  9  1  0  0  0  0
  8 10  1  0  0  0  0
  8 11  1  0  0  0  0
  8 31  1  6  0  0  0
  9 12  1  0  0  0  0
  9 32  1  6  0  0  0
 10 13  1  0  0  0  0
 11 14  1  0  0  0  0
 12 14  1  0  0  0  0
 13 16  1  1  0  0  0
 15 17  1  0  0  0  0
 17  7  1  1  0  0  0
 17 18  1  0  0  0  0
 19  7  1  6  0  0  0
 19 20  1  0  0  0  0
 19 21  1  0  0  0  0
 20 22  1  0  0  0  0
 22 23  1  0  0  0  0
 23 24  2  0  0  0  0
 23 25  1  0  0  0  0
 24 27  1  0  0  0  0
 25 28  2  0  0  0  0
 26 29  1  0  0  0  0
 27 30  2  0  0  0  0
 28 30  1  0  0  0  0
M  END
>  <DATABASE_ID>
DB00178

>  <DATABASE_NAME>
drugbank

>  <SMILES>
O(CC)C(=O)[C@@H](N[C@H](C(=O)N1[C@@H]2[C@H](C[C@H]1C(O)=O)CCC2)C)CCc1ccccc1

>  <INCHI_IDENTIFIER>
InChI=1S/C23H32N2O5/c1-3-30-23(29)18(13-12-16-8-5-4-6-9-16)24-15(2)21(26)25-19-11-7-10-17(19)14-20(25)22(27)28/h4-6,8-9,15,17-20,24H,3,7,10-14H2,1-2H3,(H,27,28)/t15-,17-,18-,19-,20-/m0/s1

>  <INCHI_KEY>
InChIKey=HDACQVRGBOVJII-JBDAPHQKSA-N

>  <JCHEM_ACCEPTOR_COUNT>
5

>  <JCHEM_AVERAGE_POLARIZABILITY>
44.778225

>  <JCHEM_BIOAVAILABILITY>
1

>  <JCHEM_DONOR_COUNT>
2

>  <JCHEM_EXACT_MASS>
416.23111

>  <JCHEM_FORMAL_CHARGE>
0

>  <JCHEM_FORMULA>
C23H32N2O5

>  <JCHEM_GHOSE_FILTER>
1

>  <JCHEM_IUPAC>
(2S,3aS,6aS)-1-[(2S)-2-{[(2S)-1-ethoxy-1-oxo-4-phenylbutan-2-yl]amino}propanoyl]-octahydrocyclopenta[b]pyrrole-2-carboxylic acid

>  <ALOGPS_LOGP>
0.92000002

>  <JCHEM_LOGP>
1.4738114

>  <ALOGPS_LOGS>
-4.0300002

>  <JCHEM_MASS>
416.51059

>  <JCHEM_MDDR_LIKE_RULE>
1

>  <JCHEM_NUMBER_OF_RINGS>
3

>  <JCHEM_PHYSIOLOGICAL_CHARGE>
-1

>  <JCHEM_PKA_STRONGEST_ACIDIC>
3.74893

>  <JCHEM_PKA_STRONGEST_BASIC>
5.2035918

>  <JCHEM_POLAR_SURFACE_AREA>
95.940002

>  <JCHEM_REFRACTIVITY>
111.1868

>  <JCHEM_ROTATABLE_BOND_COUNT>
10

>  <JCHEM_RULE_OF_FIVE>
1

>  <ALOGPS_SOLUBILITY>
3.90e-02 g/l

>  <JCHEM_TRADITIONAL_IUPAC>
ramipril

>  <JCHEM_VEBER_RULE>
0

>  <DRUGBANK_ID>
DB00178

>  <DRUG_GROUPS>
approved

>  <GENERIC_NAME>
Ramipril

>  <SYNONYMS>
Ramiprilum

>  <BRANDS>
Acovil; Altace; Carasel; Cardace; Delix; Hypren; Lostapres; Pramace; Quark; Ramace; Triatec; Tritace; Vesdil

$$$$
Baclofen
 OpenBabel02121510022D

 14 14  0  0  1  0  0  0  0  0999 V2000
    3.5220   -2.7310    0.0000 Cl  0  0  0  0  0  0  0  0  0  0  0  0
    4.9510    2.2190    0.0000 O   0  0  0  0  0  0  0  0  0  0  0  0
    3.5220    2.2190    0.0000 O   0  0  0  0  0  0  0  0  0  0  0  0
    2.0930    0.5690    0.0000 N   0  0  0  0  0  0  0  0  0  0  0  0
    3.5220    0.5690    0.0000 C   0  0  3  0  0  0  0  0  0  0  0  0
    3.5220   -0.2560    0.0000 C   0  0  0  0  0  0  0  0  0  0  0  0
    4.2360    0.9820    0.0000 C   0  0  0  0  0  0  0  0  0  0  0  0
    2.8080    0.9820    0.0000 C   0  0  0  0  0  0  0  0  0  0  0  0
    4.2360   -0.6680    0.0000 C   0  0  0  0  0  0  0  0  0  0  0  0
    2.8080   -0.6680    0.0000 C   0  0  0  0  0  0  0  0  0  0  0  0
    4.2360    1.8070    0.0000 C   0  0  0  0  0  0  0  0  0  0  0  0
    4.2360   -1.4930    0.0000 C   0  0  0  0  0  0  0  0  0  0  0  0
    2.8080   -1.4930    0.0000 C   0  0  0  0  0  0  0  0  0  0  0  0
    3.5220   -1.9060    0.0000 C   0  0  0  0  0  0  0  0  0  0  0  0
  1 14  1  0  0  0  0
  2 11  1  0  0  0  0
  3 11  2  0  0  0  0
  4  8  1  0  0  0  0
  5  6  1  0  0  0  0
  5  7  1  0  0  0  0
  5  8  1  0  0  0  0
  6  9  2  0  0  0  0
  6 10  1  0  0  0  0
  7 11  1  0  0  0  0
  9 12  1  0  0  0  0
 10 13  2  0  0  0  0
 12 14  2  0  0  0  0
 13 14  1  0  0  0  0
M  END
>  <DATABASE_ID>
DB00181

>  <DATABASE_NAME>
drugbank

>  <SMILES>
Clc1ccc(cc1)C(CC(O)=O)CN

>  <INCHI_IDENTIFIER>
InChI=1S/C10H12ClNO2/c11-9-3-1-7(2-4-9)8(6-12)5-10(13)14/h1-4,8H,5-6,12H2,(H,13,14)

>  <INCHI_KEY>
InChIKey=KPYSYYIEGFHWSV-UHFFFAOYSA-N

>  <JCHEM_ACCEPTOR_COUNT>
3

>  <JCHEM_AVERAGE_POLARIZABILITY>
21.126856

>  <JCHEM_BIOAVAILABILITY>
1

>  <JCHEM_DONOR_COUNT>
2

>  <JCHEM_EXACT_MASS>
213.05565

>  <JCHEM_FORMAL_CHARGE>
0

>  <JCHEM_FORMULA>
C10H12ClNO2

>  <JCHEM_GHOSE_FILTER>
0

>  <JCHEM_IUPAC>
4-amino-3-(4-chlorophenyl)butanoic acid

>  <ALOGPS_LOGP>
-0.81999999

>  <JCHEM_LOGP>
-0.78240025

>  <ALOGPS_LOGS>
-2.48

>  <JCHEM_MASS>
213.661

>  <JCHEM_MDDR_LIKE_RULE>
0

>  <JCHEM_NUMBER_OF_RINGS>
1

>  <JCHEM_PHYSIOLOGICAL_CHARGE>
0

>  <JCHEM_PKA_STRONGEST_ACIDIC>
3.8868947

>  <JCHEM_PKA_STRONGEST_BASIC>
9.7920151

>  <JCHEM_POLAR_SURFACE_AREA>
63.32

>  <JCHEM_REFRACTIVITY>
54.829201

>  <JCHEM_ROTATABLE_BOND_COUNT>
4

>  <JCHEM_RULE_OF_FIVE>
1

>  <ALOGPS_SOLUBILITY>
7.12e-01 g/l

>  <JCHEM_TRADITIONAL_IUPAC>
(+-)-baclofen

>  <JCHEM_VEBER_RULE>
0

>  <DRUGBANK_ID>
DB00181

>  <DRUG_GROUPS>
approved

>  <GENERIC_NAME>
Baclofen

>  <BRANDS>
Baclon; Gablofen; Kemstro; Lioresal; Lioresal Intrathecal; Nu-Baclofen; Pms-Baclofen

$$$$
Amphetamine
 OpenBabel02121510022D

 10 10  0  0  1  0  0  0  0  0999 V2000
   -0.1480    0.2040    0.0000 C   0  0  0  0  0  0  0  0  0  0  0  0
   -0.1480   -0.6210    0.0000 C   0  0  0  0  0  0  0  0  0  0  0  0
   -0.8620    0.6170    0.0000 C   0  0  0  0  0  0  0  0  0  0  0  0
    0.5660    0.6170    0.0000 C   0  0  0  0  0  0  0  0  0  0  0  0
   -0.8620   -1.0330    0.0000 C   0  0  0  0  0  0  0  0  0  0  0  0
   -1.5770    0.2040    0.0000 C   0  0  0  0  0  0  0  0  0  0  0  0
    1.2810    0.2040    0.0000 C   0  0  3  0  0  0  0  0  0  0  0  0
   -1.5770   -0.6210    0.0000 C   0  0  0  0  0  0  0  0  0  0  0  0
    1.2810   -0.6210    0.0000 C   0  0  0  0  0  0  0  0  0  0  0  0
    1.9950    0.6170    0.0000 N   0  0  0  0  0  0  0  0  0  0  0  0
  1  2  2  0  0  0  0
  1  3  1  0  0  0  0
  1  4  1  0  0  0  0
  2  5  1  0  0  0  0
  3  6  2  0  0  0  0
  4  7  1  0  0  0  0
  5  8  2  0  0  0  0
  6  8  1  0  0  0  0
  7  9  1  0  0  0  0
  7 10  1  0  0  0  0
M  END
>  <DATABASE_ID>
DB00182

>  <DATABASE_NAME>
drugbank

>  <SMILES>
NC(Cc1ccccc1)C

>  <INCHI_IDENTIFIER>
InChI=1S/C9H13N/c1-8(10)7-9-5-3-2-4-6-9/h2-6,8H,7,10H2,1H3

>  <INCHI_KEY>
InChIKey=KWTSXDURSIMDCE-UHFFFAOYSA-N

>  <JCHEM_ACCEPTOR_COUNT>
1

>  <JCHEM_AVERAGE_POLARIZABILITY>
16.17474

>  <JCHEM_BIOAVAILABILITY>
1

>  <JCHEM_DONOR_COUNT>
1

>  <JCHEM_EXACT_MASS>
135.1048

>  <JCHEM_FORMAL_CHARGE>
0

>  <JCHEM_FORMULA>
C9H13N

>  <JCHEM_GHOSE_FILTER>
0

>  <JCHEM_IUPAC>
1-phenylpropan-2-amine

>  <ALOGPS_LOGP>
1.85

>  <JCHEM_LOGP>
1.8042505

>  <ALOGPS_LOGS>
-1.89

>  <JCHEM_MASS>
135.20621

>  <JCHEM_MDDR_LIKE_RULE>
0

>  <JCHEM_NUMBER_OF_RINGS>
1

>  <JCHEM_PHYSIOLOGICAL_CHARGE>
1

>  <JCHEM_PKA_STRONGEST_BASIC>
10.014436

>  <JCHEM_POLAR_SURFACE_AREA>
26.02

>  <JCHEM_REFRACTIVITY>
43.7052

>  <JCHEM_ROTATABLE_BOND_COUNT>
2

>  <JCHEM_RULE_OF_FIVE>
1

>  <ALOGPS_SOLUBILITY>
1.74e+00 g/l

>  <JCHEM_TRADITIONAL_IUPAC>
amphetamine

>  <JCHEM_VEBER_RULE>
1

>  <DRUGBANK_ID>
DB00182

>  <DRUG_GROUPS>
approved; illicit

>  <GENERIC_NAME>
Amphetamine

>  <SYNONYMS>
1-phenyl-2-aminopropane; Amfetamine; Desoxynorephedrine; α-methylbenzeneethaneamine; α-methylphenethylamine; β-aminopropylbenzene; β-phenylisopropylamine

$$$$
Nicotine
 OpenBabel02121510022D

 12 13  0  0  1  0  0  0  0  0999 V2000
    2.4350    1.0880    0.0000 N   0  0  0  0  0  0  0  0  0  0  0  0
    2.3880   -1.4600    0.0000 N   0  0  0  0  0  0  0  0  0  0  0  0
    3.1020    0.6030    0.0000 C   0  0  3  0  0  0  0  0  0  0  0  0
    3.7700    1.0880    0.0000 C   0  0  0  0  0  0  0  0  0  0  0  0
    3.5150    1.8720    0.0000 C   0  0  0  0  0  0  0  0  0  0  0  0
    2.6900    1.8720    0.0000 C   0  0  0  0  0  0  0  0  0  0  0  0
    3.1020   -0.2220    0.0000 C   0  0  0  0  0  0  0  0  0  0  0  0
    1.6500    0.8330    0.0000 C   0  0  0  0  0  0  0  0  0  0  0  0
    3.8170   -0.6350    0.0000 C   0  0  0  0  0  0  0  0  0  0  0  0
    2.3880   -0.6350    0.0000 C   0  0  0  0  0  0  0  0  0  0  0  0
    3.8170   -1.4600    0.0000 C   0  0  0  0  0  0  0  0  0  0  0  0
    3.1020   -1.8720    0.0000 C   0  0  0  0  0  0  0  0  0  0  0  0
  1  3  1  0  0  0  0
  1  6  1  0  0  0  0
  1  8  1  0  0  0  0
  2 10  2  0  0  0  0
  2 12  1  0  0  0  0
  3  4  1  0  0  0  0
  3  7  1  0  0  0  0
  4  5  1  0  0  0  0
  5  6  1  0  0  0  0
  7  9  2  0  0  0  0
  7 10  1  0  0  0  0
  9 11  1  0  0  0  0
 11 12  2  0  0  0  0
M  END
>  <DATABASE_ID>
DB00184

>  <DATABASE_NAME>
drugbank

>  <SMILES>
n1cc(ccc1)C1N(CCC1)C

>  <INCHI_IDENTIFIER>
InChI=1S/C10H14N2/c1-12-7-3-5-10(12)9-4-2-6-11-8-9/h2,4,6,8,10H,3,5,7H2,1H3

>  <INCHI_KEY>
InChIKey=SNICXCGAKADSCV-UHFFFAOYSA-N

>  <JCHEM_ACCEPTOR_COUNT>
2

>  <JCHEM_AVERAGE_POLARIZABILITY>
18.615288

>  <JCHEM_BIOAVAILABILITY>
1

>  <JCHEM_DONOR_COUNT>
0

>  <JCHEM_EXACT_MASS>
162.11569

>  <JCHEM_FORMAL_CHARGE>
0

>  <JCHEM_FORMULA>
C10H14N2

>  <JCHEM_GHOSE_FILTER>
1

>  <JCHEM_IUPAC>
3-(1-methylpyrrolidin-2-yl)pyridine

>  <ALOGPS_LOGP>
0.87

>  <JCHEM_LOGP>
1.1625347

>  <ALOGPS_LOGS>
-0.23999999

>  <JCHEM_MASS>
162.2316

>  <JCHEM_MDDR_LIKE_RULE>
0

>  <JCHEM_NUMBER_OF_RINGS>
2

>  <JCHEM_PHYSIOLOGICAL_CHARGE>
1

>  <JCHEM_PKA_STRONGEST_BASIC>
8.8618717

>  <JCHEM_POLAR_SURFACE_AREA>
16.129999

>  <JCHEM_REFRACTIVITY>
49.654999

>  <JCHEM_ROTATABLE_BOND_COUNT>
1

>  <JCHEM_RULE_OF_FIVE>
1

>  <ALOGPS_SOLUBILITY>
9.33e+01 g/l

>  <JCHEM_TRADITIONAL_IUPAC>
nicotine

>  <JCHEM_VEBER_RULE>
1

>  <DRUGBANK_ID>
DB00184

>  <DRUG_GROUPS>
approved

>  <GENERIC_NAME>
Nicotine

>  <SYNONYMS>
(±)-nicotine; (R,S)-nicotine; (RS)-nicotine; Nicotin; Nikotin

>  <BRANDS>
Habitrol; Nicoderm; Nicoderm CQ; Nicorette; Nicotrol

$$$$
Cevimeline
 OpenBabel02121510022D

 13 15  0  0  1  0  0  0  0  0999 V2000
   -0.4740    0.0390    0.0000 C   0  0  3  0  0  0  0  0  0  0  0  0
   -1.2990    0.0390    0.0000 C   0  0  0  0  0  0  0  0  0  0  0  0
   -1.7120   -0.6760    0.0000 C   0  0  0  0  0  0  0  0  0  0  0  0
   -1.2990   -1.3900    0.0000 N   0  0  3  0  0  0  0  0  0  0  0  0
   -0.4740   -1.3900    0.0000 C   0  0  0  0  0  0  0  0  0  0  0  0
   -0.4740   -0.7860    0.0000 C   0  0  0  0  0  0  0  0  0  0  0  0
   -1.2990   -0.7860    0.0000 C   0  0  0  0  0  0  0  0  0  0  0  0
    0.3340    0.0480    0.0000 C   0  0  0  0  0  0  0  0  0  0  0  0
   -0.0620   -0.6760    0.0000 C   0  0  1  0  0  0  0  0  0  0  0  0
    0.5040   -1.2760    0.0000 O   0  0  0  0  0  0  0  0  0  0  0  0
    1.2500   -0.9230    0.0000 C   0  0  3  0  0  0  0  0  0  0  0  0
    1.1450   -0.1050    0.0000 S   0  0  0  0  0  0  0  0  0  0  0  0
    1.9740   -1.3190    0.0000 C   0  0  0  0  0  0  0  0  0  0  0  0
  1  2  1  0  0  0  0
  1  6  1  0  0  0  0
  1  9  1  0  0  0  0
  2  3  1  0  0  0  0
  3  4  1  0  0  0  0
  4  5  1  0  0  0  0
  4  7  1  0  0  0  0
  6  7  1  0  0  0  0
  8 12  1  0  0  0  0
  9  5  1  6  0  0  0
  9  8  1  0  0  0  0
  9 10  1  0  0  0  0
 10 11  1  0  0  0  0
 11 12  1  0  0  0  0
 11 13  1  0  0  0  0
M  END
>  <DATABASE_ID>
DB00185

>  <DATABASE_NAME>
drugbank

>  <SMILES>
S1C[C@@]2(OC1C)C1CCN(C2)CC1

>  <INCHI_IDENTIFIER>
InChI=1S/C10H17NOS/c1-8-12-10(7-13-8)6-11-4-2-9(10)3-5-11/h8-9H,2-7H2,1H3/t8?,10-/m1/s1

>  <INCHI_KEY>
InChIKey=WUTYZMFRCNBCHQ-LHIURRSHSA-N

>  <JCHEM_ACCEPTOR_COUNT>
2

>  <JCHEM_AVERAGE_POLARIZABILITY>
21.890825

>  <JCHEM_BIOAVAILABILITY>
1

>  <JCHEM_DONOR_COUNT>
0

>  <JCHEM_EXACT_MASS>
199.10309

>  <JCHEM_FORMAL_CHARGE>
0

>  <JCHEM_FORMULA>
C10H17NOS

>  <JCHEM_GHOSE_FILTER>
1

>  <JCHEM_IUPAC>
(2R)-5'-methyl-4-azaspiro[bicyclo[2.2.2]octane-2,2'-[1,4]oxathiolane]

>  <ALOGPS_LOGP>
1.46

>  <JCHEM_LOGP>
0.99640632

>  <ALOGPS_LOGS>
-1.92

>  <JCHEM_MASS>
199.313

>  <JCHEM_MDDR_LIKE_RULE>
0

>  <JCHEM_NUMBER_OF_RINGS>
3

>  <JCHEM_PHYSIOLOGICAL_CHARGE>
1

>  <JCHEM_PKA_STRONGEST_BASIC>
8.5944004

>  <JCHEM_POLAR_SURFACE_AREA>
12.47

>  <JCHEM_REFRACTIVITY>
55.9221

>  <JCHEM_ROTATABLE_BOND_COUNT>
0

>  <JCHEM_RULE_OF_FIVE>
1

>  <ALOGPS_SOLUBILITY>
2.41e+00 g/l

>  <JCHEM_TRADITIONAL_IUPAC>
cevimeline

>  <JCHEM_VEBER_RULE>
1

>  <DRUGBANK_ID>
DB00185

>  <DRUG_GROUPS>
approved

>  <GENERIC_NAME>
Cevimeline

>  <BRANDS>
Evoxac; Saligren

>  <SALTS>
Cevimeline hydrochloride

$$$$
Lorazepam
 OpenBabel02121510022D

 21 23  0  0  1  0  0  0  0  0999 V2000
    2.5470   -2.3780    0.0000 Cl  0  0  0  0  0  0  0  0  0  0  0  0
    3.6080   -1.4840    0.0000 Cl  0  0  0  0  0  0  0  0  0  0  0  0
    3.8810    2.3400    0.0000 O   0  0  0  0  0  0  0  0  0  0  0  0
    2.3400    2.3400    0.0000 O   0  0  0  0  0  0  0  0  0  0  0  0
    2.1840    0.9520    0.0000 N   0  0  0  0  0  0  0  0  0  0  0  0
    4.0370    0.9520    0.0000 N   0  0  0  0  0  0  0  0  0  0  0  0
    3.1110   -0.2100    0.0000 C   0  0  0  0  0  0  0  0  0  0  0  0
    3.8540    0.1480    0.0000 C   0  0  0  0  0  0  0  0  0  0  0  0
    2.3670    0.1480    0.0000 C   0  0  0  0  0  0  0  0  0  0  0  0
    4.4990   -0.3670    0.0000 C   0  0  0  0  0  0  0  0  0  0  0  0
    3.5230    1.5970    0.0000 C   0  0  3  0  0  0  0  0  0  0  0  0
    3.1880   -1.0660    0.0000 C   0  0  0  0  0  0  0  0  0  0  0  0
    2.6980    1.5970    0.0000 C   0  0  0  0  0  0  0  0  0  0  0  0
    1.6500   -0.3260    0.0000 C   0  0  0  0  0  0  0  0  0  0  0  0
    2.4820   -1.5560    0.0000 C   0  0  0  0  0  0  0  0  0  0  0  0
    1.7080   -1.1830    0.0000 C   0  0  0  0  0  0  0  0  0  0  0  0
    4.3760   -1.1830    0.0000 C   0  0  0  0  0  0  0  0  0  0  0  0
    5.2670   -0.0660    0.0000 C   0  0  0  0  0  0  0  0  0  0  0  0
    5.0210   -1.6970    0.0000 C   0  0  0  0  0  0  0  0  0  0  0  0
    5.9120   -0.5800    0.0000 C   0  0  0  0  0  0  0  0  0  0  0  0
    5.7890   -1.3960    0.0000 C   0  0  0  0  0  0  0  0  0  0  0  0
  1 15  1  0  0  0  0
  2 17  1  0  0  0  0
  3 11  1  0  0  0  0
  4 13  2  0  0  0  0
  5  9  1  0  0  0  0
  5 13  1  0  0  0  0
  6  8  2  0  0  0  0
  6 11  1  0  0  0  0
  7  8  1  0  0  0  0
  7  9  2  0  0  0  0
  7 12  1  0  0  0  0
  8 10  1  0  0  0  0
  9 14  1  0  0  0  0
 10 17  2  0  0  0  0
 10 18  1  0  0  0  0
 11 13  1  0  0  0  0
 12 15  2  0  0  0  0
 14 16  2  0  0  0  0
 15 16  1  0  0  0  0
 17 19  1  0  0  0  0
 18 20  2  0  0  0  0
 19 21  2  0  0  0  0
 20 21  1  0  0  0  0
M  END
>  <DATABASE_ID>
DB00186

>  <DATABASE_NAME>
drugbank

>  <SMILES>
Clc1ccccc1C1=NC(O)C(=O)Nc2c1cc(Cl)cc2

>  <INCHI_IDENTIFIER>
InChI=1S/C15H10Cl2N2O2/c16-8-5-6-12-10(7-8)13(19-15(21)14(20)18-12)9-3-1-2-4-11(9)17/h1-7,15,21H,(H,18,20)

>  <INCHI_KEY>
InChIKey=DIWRORZWFLOCLC-UHFFFAOYSA-N

>  <JCHEM_ACCEPTOR_COUNT>
3

>  <JCHEM_AVERAGE_POLARIZABILITY>
30.334841

>  <JCHEM_BIOAVAILABILITY>
1

>  <JCHEM_DONOR_COUNT>
2

>  <JCHEM_EXACT_MASS>
320.01193

>  <JCHEM_FORMAL_CHARGE>
0

>  <JCHEM_FORMULA>
C15H10Cl2N2O2

>  <JCHEM_GHOSE_FILTER>
1

>  <JCHEM_IUPAC>
7-chloro-5-(2-chlorophenyl)-3-hydroxy-2,3-dihydro-1H-1,4-benzodiazepin-2-one

>  <ALOGPS_LOGP>
2.98

>  <JCHEM_LOGP>
3.5273254

>  <ALOGPS_LOGS>
-4.2600002

>  <JCHEM_MASS>
321.15799

>  <JCHEM_MDDR_LIKE_RULE>
0

>  <JCHEM_NUMBER_OF_RINGS>
3

>  <JCHEM_PHYSIOLOGICAL_CHARGE>
0

>  <JCHEM_PKA>
12.461591

>  <JCHEM_PKA_STRONGEST_ACIDIC>
10.606301

>  <JCHEM_PKA_STRONGEST_BASIC>
-2.2363532

>  <JCHEM_POLAR_SURFACE_AREA>
61.689999

>  <JCHEM_REFRACTIVITY>
82.699203

>  <JCHEM_ROTATABLE_BOND_COUNT>
1

>  <JCHEM_RULE_OF_FIVE>
1

>  <ALOGPS_SOLUBILITY>
1.76e-02 g/l

>  <JCHEM_TRADITIONAL_IUPAC>
lorazepam

>  <JCHEM_VEBER_RULE>
0

>  <DRUGBANK_ID>
DB00186

>  <DRUG_GROUPS>
approved

>  <GENERIC_NAME>
Lorazepam

>  <SYNONYMS>
(±)-Lorazepam; Lormetazepam; Methyllorazepam; N-Methyllorazepam; O-Chlorooxazepam; O-Chloroxazepam

>  <BRANDS>
Almazine; Anxiedin; Ativan; Idalprem; Lorabenz; Lorsilan; Somagerol; Temesta; Wypax

$$$$
Ethchlorvynol
 OpenBabel02121510022D

 10  9  0  0  1  0  0  0  0  0999 V2000
    6.2860   -7.7660    0.0000 C   0  0  0  0  0  0  0  0  0  0  0  0
    6.9920   -7.3580    0.0000 C   0  0  3  0  0  0  0  0  0  0  0  0
    7.6980   -7.7660    0.0000 C   0  0  0  0  0  0  0  0  0  0  0  0
    8.4040   -7.3580    0.0000 C   0  0  0  0  0  0  0  0  0  0  0  0
    9.1200   -7.7720    0.0000 Cl  0  0  0  0  0  0  0  0  0  0  0  0
    8.4040   -6.5290    0.0000 H   0  0  0  0  0  0  0  0  0  0  0  0
    7.3970   -6.6390    0.0000 C   0  0  0  0  0  0  0  0  0  0  0  0
    6.5690   -6.6390    0.0000 O   0  0  0  0  0  0  0  0  0  0  0  0
    5.5720   -7.3470    0.0000 C   0  0  0  0  0  0  0  0  0  0  0  0
    7.8050   -5.9210    0.0000 C   0  0  0  0  0  0  0  0  0  0  0  0
  1  2  1  0  0  0  0
  1  9  1  0  0  0  0
  2  3  1  0  0  0  0
  2  7  1  0  0  0  0
  2  8  1  0  0  0  0
  3  4  2  0  0  0  0
  4  5  1  0  0  0  0
  4  6  1  0  0  0  0
  7 10  3  0  0  0  0
M  END
>  <DATABASE_ID>
DB00189

>  <DATABASE_NAME>
drugbank

>  <SMILES>
ClC=CC(O)(CC)C#C

>  <INCHI_IDENTIFIER>
InChI=1S/C7H9ClO/c1-3-7(9,4-2)5-6-8/h1,5-6,9H,4H2,2H3/b6-5+

>  <INCHI_KEY>
InChIKey=ZEHYJZXQEQOSON-AATRIKPKSA-N

>  <JCHEM_ACCEPTOR_COUNT>
1

>  <JCHEM_AVERAGE_POLARIZABILITY>
14.766102

>  <JCHEM_BIOAVAILABILITY>
1

>  <JCHEM_DONOR_COUNT>
1

>  <JCHEM_EXACT_MASS>
144.03419

>  <JCHEM_FORMAL_CHARGE>
0

>  <JCHEM_FORMULA>
C7H9ClO

>  <JCHEM_GHOSE_FILTER>
0

>  <JCHEM_IUPAC>
1-chloro-3-ethylpent-1-en-4-yn-3-ol

>  <ALOGPS_LOGP>
1.45

>  <JCHEM_LOGP>
1.6208194

>  <ALOGPS_LOGS>
-3

>  <JCHEM_MASS>
144.599

>  <JCHEM_MDDR_LIKE_RULE>
0

>  <JCHEM_NUMBER_OF_RINGS>
0

>  <JCHEM_PHYSIOLOGICAL_CHARGE>
0

>  <JCHEM_PKA_STRONGEST_ACIDIC>
12.877911

>  <JCHEM_PKA_STRONGEST_BASIC>
-3.7270019

>  <JCHEM_POLAR_SURFACE_AREA>
20.23

>  <JCHEM_REFRACTIVITY>
38.638199

>  <JCHEM_ROTATABLE_BOND_COUNT>
2

>  <JCHEM_RULE_OF_FIVE>
1

>  <ALOGPS_SOLUBILITY>
1.43e-01 g/l

>  <JCHEM_TRADITIONAL_IUPAC>
ethchlorvynol

>  <JCHEM_VEBER_RULE>
1

>  <DRUGBANK_ID>
DB00189

>  <DRUG_GROUPS>
approved; illicit; withdrawn

>  <GENERIC_NAME>
Ethchlorvynol

>  <SYNONYMS>
1-chloro-3-ethyl-1-penten-4-yn-3-ol; 1-Chloro-3-ethyl-pent-1-en-4-yn-3-ol; 3-(beta-chlorovinyl)-1-pentyn-3-ol; 3-(β-chlorovinyl)-1-pentyn-3-ol; ethyl β-chlorovinyl ethynyl carbinol; β-chlorovinyl ethyl ethynyl carbinol

>  <BRANDS>
Arvynol; Nostel; Placidyl; Roeridorm; Serenesil

$$$$
Carbidopa
 OpenBabel02121510022D

 17 16  0  0  1  0  0  0  0  0999 V2000
    5.4360   -5.9190    0.0000 C   0  0  0  0  0  0  0  0  0  0  0  0
    5.4360   -6.7440    0.0000 C   0  0  0  0  0  0  0  0  0  0  0  0
    4.7210   -5.5070    0.0000 C   0  0  0  0  0  0  0  0  0  0  0  0
    4.7210   -7.1570    0.0000 C   0  0  0  0  0  0  0  0  0  0  0  0
    4.0070   -5.9190    0.0000 C   0  0  0  0  0  0  0  0  0  0  0  0
    4.0070   -6.7440    0.0000 C   0  0  0  0  0  0  0  0  0  0  0  0
    3.2920   -5.5070    0.0000 O   0  0  0  0  0  0  0  0  0  0  0  0
    3.2920   -7.1570    0.0000 O   0  0  0  0  0  0  0  0  0  0  0  0
    6.1500   -5.5070    0.0000 C   0  0  0  0  0  0  0  0  0  0  0  0
    6.8650   -5.9190    0.0000 C   0  0  2  0  0  0  0  0  0  0  0  0
    7.5790   -5.5070    0.0000 C   0  0  0  0  0  0  0  0  0  0  0  0
    8.2940   -5.9190    0.0000 O   0  0  0  0  0  0  0  0  0  0  0  0
    7.5790   -4.6820    0.0000 O   0  0  0  0  0  0  0  0  0  0  0  0
    6.4610   -6.6300    0.0000 C   0  0  0  0  0  0  0  0  0  0  0  0
    7.2860   -6.6300    0.0000 N   0  0  0  0  0  0  0  0  0  0  0  0
    6.8810   -7.3490    0.0000 N   0  0  0  0  0  0  0  0  0  0  0  0
    8.6480   -7.2560    0.0000 O   0  0  0  0  0  0  0  0  0  0  0  0
  1  2  1  0  0  0  0
  1  3  2  0  0  0  0
  1  9  1  0  0  0  0
  2  4  2  0  0  0  0
  3  5  1  0  0  0  0
  4  6  1  0  0  0  0
  5  6  2  0  0  0  0
  5  7  1  0  0  0  0
  6  8  1  0  0  0  0
 10  9  1  1  0  0  0
 10 11  1  0  0  0  0
 10 14  1  0  0  0  0
 10 15  1  0  0  0  0
 11 12  1  0  0  0  0
 11 13  2  0  0  0  0
 15 16  1  0  0  0  0
M  END
>  <DATABASE_ID>
DB00190

>  <DATABASE_NAME>
drugbank

>  <SMILES>
O.Oc1cc(ccc1O)C[C@](NN)(C(O)=O)C

>  <INCHI_IDENTIFIER>
InChI=1S/C10H14N2O4.H2O/c1-10(12-11,9(15)16)5-6-2-3-7(13)8(14)4-6;/h2-4,12-14H,5,11H2,1H3,(H,15,16);1H2/t10-;/m0./s1

>  <INCHI_KEY>
InChIKey=QTAOMKOIBXZKND-PPHPATTJSA-N

>  <JCHEM_ACCEPTOR_COUNT>
6

>  <JCHEM_AVERAGE_POLARIZABILITY>
21.806808

>  <JCHEM_BIOAVAILABILITY>
1

>  <JCHEM_DONOR_COUNT>
5

>  <JCHEM_EXACT_MASS>
244.10593

>  <JCHEM_FORMAL_CHARGE>
0

>  <JCHEM_FORMULA>
C10H16N2O5

>  <JCHEM_GHOSE_FILTER>
0

>  <JCHEM_IUPAC>
(2S)-3-(3,4-dihydroxyphenyl)-2-hydrazinyl-2-methylpropanoic acid hydrate

>  <JCHEM_LOGP>
-1.1881938

>  <JCHEM_MASS>
244.2444

>  <JCHEM_MDDR_LIKE_RULE>
0

>  <JCHEM_NUMBER_OF_RINGS>
1

>  <JCHEM_PHYSIOLOGICAL_CHARGE>
-1

>  <JCHEM_PKA>
9.2865047

>  <JCHEM_PKA_STRONGEST_ACIDIC>
3.5892224

>  <JCHEM_PKA_STRONGEST_BASIC>
5.6542931

>  <JCHEM_POLAR_SURFACE_AREA>
115.81

>  <JCHEM_REFRACTIVITY>
68.768303

>  <JCHEM_ROTATABLE_BOND_COUNT>
4

>  <JCHEM_RULE_OF_FIVE>
1

>  <JCHEM_TRADITIONAL_IUPAC>
carbidopa hydrate

>  <JCHEM_VEBER_RULE>
0

>  <DRUGBANK_ID>
DB00190

>  <DRUG_GROUPS>
approved

>  <GENERIC_NAME>
Carbidopa

>  <SYNONYMS>
(S)-(−)-carbidopa hydrate; (S)-carbidopa hydrate; carbidopa hydrate; Carbidopa monohydrate; Carbidopum

>  <BRANDS>
Lodosyn

$$$$
Phentermine
 OpenBabel02121510022D

 11 11  0  0  0  0  0  0  0  0999 V2000
    3.7940    1.3940    0.0000 N   0  0  0  0  0  0  0  0  0  0  0  0
    3.0790    0.9820    0.0000 C   0  0  0  0  0  0  0  0  0  0  0  0
    2.3640    0.5690    0.0000 C   0  0  0  0  0  0  0  0  0  0  0  0
    2.6660    1.6960    0.0000 C   0  0  0  0  0  0  0  0  0  0  0  0
    3.4920    0.2670    0.0000 C   0  0  0  0  0  0  0  0  0  0  0  0
    2.3640   -0.2560    0.0000 C   0  0  0  0  0  0  0  0  0  0  0  0
    3.0790   -0.6680    0.0000 C   0  0  0  0  0  0  0  0  0  0  0  0
    1.6500   -0.6680    0.0000 C   0  0  0  0  0  0  0  0  0  0  0  0
    3.0790   -1.4930    0.0000 C   0  0  0  0  0  0  0  0  0  0  0  0
    1.6500   -1.4930    0.0000 C   0  0  0  0  0  0  0  0  0  0  0  0
    2.3640   -1.9060    0.0000 C   0  0  0  0  0  0  0  0  0  0  0  0
  1  2  1  0  0  0  0
  2  3  1  0  0  0  0
  2  4  1  0  0  0  0
  2  5  1  0  0  0  0
  3  6  1  0  0  0  0
  6  7  2  0  0  0  0
  6  8  1  0  0  0  0
  7  9  1  0  0  0  0
  8 10  2  0  0  0  0
  9 11  2  0  0  0  0
 10 11  1  0  0  0  0
M  END
>  <DATABASE_ID>
DB00191

>  <DATABASE_NAME>
drugbank

>  <SMILES>
NC(Cc1ccccc1)(C)C

>  <INCHI_IDENTIFIER>
InChI=1S/C10H15N/c1-10(2,11)8-9-6-4-3-5-7-9/h3-7H,8,11H2,1-2H3

>  <INCHI_KEY>
InChIKey=DHHVAGZRUROJKS-UHFFFAOYSA-N

>  <JCHEM_ACCEPTOR_COUNT>
1

>  <JCHEM_AVERAGE_POLARIZABILITY>
17.874968

>  <JCHEM_BIOAVAILABILITY>
1

>  <JCHEM_DONOR_COUNT>
1

>  <JCHEM_EXACT_MASS>
149.12045

>  <JCHEM_FORMAL_CHARGE>
0

>  <JCHEM_FORMULA>
C10H15N

>  <JCHEM_GHOSE_FILTER>
0

>  <JCHEM_IUPAC>
2-methyl-1-phenylpropan-2-amine

>  <ALOGPS_LOGP>
2.3199999

>  <JCHEM_LOGP>
2.0848272

>  <ALOGPS_LOGS>
-2.29

>  <JCHEM_MASS>
149.2328

>  <JCHEM_MDDR_LIKE_RULE>
0

>  <JCHEM_NUMBER_OF_RINGS>
1

>  <JCHEM_PHYSIOLOGICAL_CHARGE>
1

>  <JCHEM_PKA_STRONGEST_BASIC>
10.248514

>  <JCHEM_POLAR_SURFACE_AREA>
26.02

>  <JCHEM_REFRACTIVITY>
48.343399

>  <JCHEM_ROTATABLE_BOND_COUNT>
2

>  <JCHEM_RULE_OF_FIVE>
1

>  <ALOGPS_SOLUBILITY>
7.57e-01 g/l

>  <JCHEM_TRADITIONAL_IUPAC>
phentermine

>  <JCHEM_VEBER_RULE>
1

>  <DRUGBANK_ID>
DB00191

>  <DRUG_GROUPS>
approved; illicit

>  <GENERIC_NAME>
Phentermine

>  <SYNONYMS>
alpha,alpha-Dimethylphenethylamine

>  <BRANDS>
Adipex-P; Duromine; Fastin; Ionamin; Obenix; Phentercot; Phentride; Pro-Fast; Suprenza; Zantryl

>  <SALTS>
Phentermine Hydrochloride

$$$$
Tramadol
 OpenBabel02121510022D

 19 20  0  0  1  0  0  0  0  0999 V2000
    4.0960    0.4680    0.0000 O   0  0  0  0  0  0  0  0  0  0  0  0
    6.9830    1.1820    0.0000 O   0  0  0  0  0  0  0  0  0  0  0  0
    2.3640   -0.6590    0.0000 N   0  0  0  0  0  0  0  0  0  0  0  0
    3.7940   -0.6590    0.0000 C   0  0  2  0  0  0  0  0  0  0  0  0
    4.5080   -0.2470    0.0000 C   0  0  1  0  0  0  0  0  0  0  0  0
    3.7940   -1.4840    0.0000 C   0  0  0  0  0  0  0  0  0  0  0  0
    5.2220   -0.6590    0.0000 C   0  0  0  0  0  0  0  0  0  0  0  0
    4.5080   -1.8970    0.0000 C   0  0  0  0  0  0  0  0  0  0  0  0
    5.2220   -1.4840    0.0000 C   0  0  0  0  0  0  0  0  0  0  0  0
    3.0790   -0.2470    0.0000 C   0  0  0  0  0  0  0  0  0  0  0  0
    4.9200    0.4680    0.0000 C   0  0  0  0  0  0  0  0  0  0  0  0
    5.7460    0.4680    0.0000 C   0  0  0  0  0  0  0  0  0  0  0  0
    4.5080    1.1820    0.0000 C   0  0  0  0  0  0  0  0  0  0  0  0
    1.6500   -0.2470    0.0000 C   0  0  0  0  0  0  0  0  0  0  0  0
    2.3640   -1.4840    0.0000 C   0  0  0  0  0  0  0  0  0  0  0  0
    6.1580    1.1820    0.0000 C   0  0  0  0  0  0  0  0  0  0  0  0
    4.9200    1.8970    0.0000 C   0  0  0  0  0  0  0  0  0  0  0  0
    5.7460    1.8970    0.0000 C   0  0  0  0  0  0  0  0  0  0  0  0
    7.3960    1.8970    0.0000 C   0  0  0  0  0  0  0  0  0  0  0  0
  2 16  1  0  0  0  0
  2 19  1  0  0  0  0
  3 10  1  0  0  0  0
  3 14  1  0  0  0  0
  3 15  1  0  0  0  0
  4  5  1  0  0  0  0
  4  6  1  0  0  0  0
  4 10  1  6  0  0  0
  5  1  1  6  0  0  0
  5  7  1  0  0  0  0
  5 11  1  0  0  0  0
  6  8  1  0  0  0  0
  7  9  1  0  0  0  0
  8  9  1  0  0  0  0
 11 12  2  0  0  0  0
 11 13  1  0  0  0  0
 12 16  1  0  0  0  0
 13 17  2  0  0  0  0
 16 18  2  0  0  0  0
 17 18  1  0  0  0  0
M  END
>  <DATABASE_ID>
DB00193

>  <DATABASE_NAME>
drugbank

>  <SMILES>
O(C)c1cc(ccc1)[C@@]1(O)CCCC[C@@H]1CN(C)C

>  <INCHI_IDENTIFIER>
InChI=1S/C16H25NO2/c1-17(2)12-14-7-4-5-10-16(14,18)13-8-6-9-15(11-13)19-3/h6,8-9,11,14,18H,4-5,7,10,12H2,1-3H3/t14-,16+/m1/s1

>  <INCHI_KEY>
InChIKey=TVYLLZQTGLZFBW-ZBFHGGJFSA-N

>  <JCHEM_ACCEPTOR_COUNT>
3

>  <JCHEM_AVERAGE_POLARIZABILITY>
30.452984

>  <JCHEM_BIOAVAILABILITY>
1

>  <JCHEM_DONOR_COUNT>
1

>  <JCHEM_EXACT_MASS>
263.18854

>  <JCHEM_FORMAL_CHARGE>
0

>  <JCHEM_FORMULA>
C16H25NO2

>  <JCHEM_GHOSE_FILTER>
1

>  <JCHEM_IUPAC>
(1R,2R)-2-[(dimethylamino)methyl]-1-(3-methoxyphenyl)cyclohexan-1-ol

>  <ALOGPS_LOGP>
2.71

>  <JCHEM_LOGP>
2.4498615

>  <ALOGPS_LOGS>
-2.55

>  <JCHEM_MASS>
263.37521

>  <JCHEM_MDDR_LIKE_RULE>
0

>  <JCHEM_NUMBER_OF_RINGS>
2

>  <JCHEM_PHYSIOLOGICAL_CHARGE>
1

>  <JCHEM_PKA_STRONGEST_ACIDIC>
13.795218

>  <JCHEM_PKA_STRONGEST_BASIC>
9.2311115

>  <JCHEM_POLAR_SURFACE_AREA>
32.700001

>  <JCHEM_REFRACTIVITY>
78.269203

>  <JCHEM_ROTATABLE_BOND_COUNT>
4

>  <JCHEM_RULE_OF_FIVE>
1

>  <ALOGPS_SOLUBILITY>
7.50e-01 g/l

>  <JCHEM_TRADITIONAL_IUPAC>
tramadol

>  <JCHEM_VEBER_RULE>
1

>  <DRUGBANK_ID>
DB00193

>  <DRUG_GROUPS>
approved; investigational

>  <GENERIC_NAME>
Tramadol

>  <BRANDS>
ConZip; Durela; Ralivia; Rybix; Ryzolt; Tramal; Tridural; Ultram; Zytram XL

>  <SALTS>
Tramadol Hydrochloride

$$$$
Fluconazole
 OpenBabel02121510022D

 22 24  0  0  0  0  0  0  0  0999 V2000
    1.6500   -0.2900    0.0000 F   0  0  0  0  0  0  0  0  0  0  0  0
    3.0790   -2.7650    0.0000 F   0  0  0  0  0  0  0  0  0  0  0  0
    2.2540    0.5350    0.0000 O   0  0  0  0  0  0  0  0  0  0  0  0
    3.7930    1.7730    0.0000 N   0  0  0  0  0  0  0  0  0  0  0  0
    4.6180    0.1230    0.0000 N   0  0  0  0  0  0  0  0  0  0  0  0
    4.5470    1.4370    0.0000 N   0  0  0  0  0  0  0  0  0  0  0  0
    5.3720    0.4580    0.0000 N   0  0  0  0  0  0  0  0  0  0  0  0
    4.6870    2.7650    0.0000 N   0  0  0  0  0  0  0  0  0  0  0  0
    5.5120   -0.8690    0.0000 N   0  0  0  0  0  0  0  0  0  0  0  0
    3.0790    0.5350    0.0000 C   0  0  0  0  0  0  0  0  0  0  0  0
    3.0790    1.3600    0.0000 C   0  0  0  0  0  0  0  0  0  0  0  0
    3.9040    0.5350    0.0000 C   0  0  0  0  0  0  0  0  0  0  0  0
    3.0790   -0.2900    0.0000 C   0  0  0  0  0  0  0  0  0  0  0  0
    2.3640   -0.7020    0.0000 C   0  0  0  0  0  0  0  0  0  0  0  0
    3.7930   -0.7020    0.0000 C   0  0  0  0  0  0  0  0  0  0  0  0
    2.3640   -1.5270    0.0000 C   0  0  0  0  0  0  0  0  0  0  0  0
    3.7930   -1.5270    0.0000 C   0  0  0  0  0  0  0  0  0  0  0  0
    3.8800    2.5930    0.0000 C   0  0  0  0  0  0  0  0  0  0  0  0
    4.7050   -0.6980    0.0000 C   0  0  0  0  0  0  0  0  0  0  0  0
    3.0790   -1.9400    0.0000 C   0  0  0  0  0  0  0  0  0  0  0  0
    5.0990    2.0500    0.0000 C   0  0  0  0  0  0  0  0  0  0  0  0
    5.9240   -0.1550    0.0000 C   0  0  0  0  0  0  0  0  0  0  0  0
  1 14  1  0  0  0  0
  2 20  1  0  0  0  0
  3 10  1  0  0  0  0
  4  6  1  0  0  0  0
  4 11  1  0  0  0  0
  4 18  1  0  0  0  0
  5  7  1  0  0  0  0
  5 12  1  0  0  0  0
  5 19  1  0  0  0  0
  6 21  2  0  0  0  0
  7 22  2  0  0  0  0
  8 18  2  0  0  0  0
  8 21  1  0  0  0  0
  9 19  2  0  0  0  0
  9 22  1  0  0  0  0
 10 11  1  0  0  0  0
 10 12  1  0  0  0  0
 10 13  1  0  0  0  0
 13 14  2  0  0  0  0
 13 15  1  0  0  0  0
 14 16  1  0  0  0  0
 15 17  2  0  0  0  0
 16 20  2  0  0  0  0
 17 20  1  0  0  0  0
M  END
>  <DATABASE_ID>
DB00196

>  <DATABASE_NAME>
drugbank

>  <SMILES>
Fc1cc(F)ccc1C(O)(Cn1ncnc1)Cn1ncnc1

>  <INCHI_IDENTIFIER>
InChI=1S/C13H12F2N6O/c14-10-1-2-11(12(15)3-10)13(22,4-20-8-16-6-18-20)5-21-9-17-7-19-21/h1-3,6-9,22H,4-5H2

>  <INCHI_KEY>
InChIKey=RFHAOTPXVQNOHP-UHFFFAOYSA-N

>  <JCHEM_ACCEPTOR_COUNT>
5

>  <JCHEM_AVERAGE_POLARIZABILITY>
26.521181

>  <JCHEM_BIOAVAILABILITY>
1

>  <JCHEM_DONOR_COUNT>
1

>  <JCHEM_EXACT_MASS>
306.10406

>  <JCHEM_FORMAL_CHARGE>
0

>  <JCHEM_FORMULA>
C13H12F2N6O

>  <JCHEM_GHOSE_FILTER>
1

>  <JCHEM_IUPAC>
2-(2,4-difluorophenyl)-1,3-bis(1H-1,2,4-triazol-1-yl)propan-2-ol

>  <ALOGPS_LOGP>
0.57999998

>  <JCHEM_LOGP>
0.56095827

>  <ALOGPS_LOGS>
-2.3399999

>  <JCHEM_MASS>
306.27081

>  <JCHEM_MDDR_LIKE_RULE>
0

>  <JCHEM_NUMBER_OF_RINGS>
3

>  <JCHEM_PHYSIOLOGICAL_CHARGE>
0

>  <JCHEM_PKA_STRONGEST_ACIDIC>
12.707209

>  <JCHEM_PKA_STRONGEST_BASIC>
2.5632358

>  <JCHEM_POLAR_SURFACE_AREA>
81.650002

>  <JCHEM_REFRACTIVITY>
97.199501

>  <JCHEM_ROTATABLE_BOND_COUNT>
5

>  <JCHEM_RULE_OF_FIVE>
1

>  <ALOGPS_SOLUBILITY>
1.39e+00 g/l

>  <JCHEM_TRADITIONAL_IUPAC>
fluconazole

>  <JCHEM_VEBER_RULE>
0

>  <DRUGBANK_ID>
DB00196

>  <DRUG_GROUPS>
approved

>  <GENERIC_NAME>
Fluconazole

>  <BRANDS>
Diflucan; Elazor; Flucazol; Flucostat; Flunizol; Monicure; Pritenzol; Trican; Triflucan

$$$$
Oseltamivir
 OpenBabel02121510022D

 22 22  0  0  1  0  0  0  0  0999 V2000
    3.7940    1.0310    0.0000 O   0  0  0  0  0  0  0  0  0  0  0  0
    4.5080   -1.8560    0.0000 O   0  0  0  0  0  0  0  0  0  0  0  0
    5.9370   -1.8560    0.0000 O   0  0  0  0  0  0  0  0  0  0  0  0
    3.7940    1.8560    0.0000 O   0  0  0  0  0  0  0  0  0  0  0  0
    5.2220    1.8560    0.0000 N   0  0  0  0  0  0  0  0  0  0  0  0
    6.6520    1.0310    0.0000 N   0  0  0  0  0  0  0  0  0  0  0  0
    5.2220    1.0310    0.0000 C   0  0  2  0  0  0  0  0  0  0  0  0
    5.9370    0.6190    0.0000 C   0  0  2  0  0  0  0  0  0  0  0  0
    4.5080    0.6190    0.0000 C   0  0  1  0  0  0  0  0  0  0  0  0
    5.9370   -0.2060    0.0000 C   0  0  0  0  0  0  0  0  0  0  0  0
    4.5080   -0.2060    0.0000 C   0  0  0  0  0  0  0  0  0  0  0  0
    5.2220   -0.6190    0.0000 C   0  0  0  0  0  0  0  0  0  0  0  0
    3.0790    0.6190    0.0000 C   0  0  0  0  0  0  0  0  0  0  0  0
    2.3640    1.0310    0.0000 C   0  0  0  0  0  0  0  0  0  0  0  0
    3.0790   -0.2060    0.0000 C   0  0  0  0  0  0  0  0  0  0  0  0
    5.2220   -1.4440    0.0000 C   0  0  0  0  0  0  0  0  0  0  0  0
    4.5080    2.2690    0.0000 C   0  0  0  0  0  0  0  0  0  0  0  0
    1.6500    0.6190    0.0000 C   0  0  0  0  0  0  0  0  0  0  0  0
    2.3640   -0.6190    0.0000 C   0  0  0  0  0  0  0  0  0  0  0  0
    4.5080    3.0940    0.0000 C   0  0  0  0  0  0  0  0  0  0  0  0
    4.5080   -2.6810    0.0000 C   0  0  0  0  0  0  0  0  0  0  0  0
    3.7940   -3.0940    0.0000 C   0  0  0  0  0  0  0  0  0  0  0  0
  1 13  1  0  0  0  0
  2 16  1  0  0  0  0
  2 21  1  0  0  0  0
  3 16  2  0  0  0  0
  4 17  2  0  0  0  0
  5 17  1  0  0  0  0
  7  5  1  6  0  0  0
  7  8  1  0  0  0  0
  7  9  1  0  0  0  0
  8  6  1  1  0  0  0
  8 10  1  0  0  0  0
  9  1  1  1  0  0  0
  9 11  1  0  0  0  0
 10 12  1  0  0  0  0
 11 12  2  0  0  0  0
 12 16  1  0  0  0  0
 13 14  1  0  0  0  0
 13 15  1  0  0  0  0
 14 18  1  0  0  0  0
 15 19  1  0  0  0  0
 17 20  1  0  0  0  0
 21 22  1  0  0  0  0
M  END
>  <DATABASE_ID>
DB00198

>  <DATABASE_NAME>
drugbank

>  <SMILES>
O(C(CC)CC)[C@@H]1C=C(C[C@H](N)[C@H]1NC(=O)C)C(OCC)=O

>  <INCHI_IDENTIFIER>
InChI=1S/C16H28N2O4/c1-5-12(6-2)22-14-9-11(16(20)21-7-3)8-13(17)15(14)18-10(4)19/h9,12-15H,5-8,17H2,1-4H3,(H,18,19)/t13-,14+,15+/m0/s1

>  <INCHI_KEY>
InChIKey=VSZGPKBBMSAYNT-RRFJBIMHSA-N

>  <JCHEM_ACCEPTOR_COUNT>
4

>  <JCHEM_AVERAGE_POLARIZABILITY>
34.648399

>  <JCHEM_BIOAVAILABILITY>
1

>  <JCHEM_DONOR_COUNT>
2

>  <JCHEM_EXACT_MASS>
312.2049

>  <JCHEM_FORMAL_CHARGE>
0

>  <JCHEM_FORMULA>
C16H28N2O4

>  <JCHEM_GHOSE_FILTER>
1

>  <JCHEM_IUPAC>
ethyl (3R,4R,5S)-5-amino-4-acetamido-3-(pentan-3-yloxy)cyclohex-1-ene-1-carboxylate

>  <ALOGPS_LOGP>
1.3

>  <JCHEM_LOGP>
1.1625985

>  <ALOGPS_LOGS>
-2.6600001

>  <JCHEM_MASS>
312.40451

>  <JCHEM_MDDR_LIKE_RULE>
0

>  <JCHEM_NUMBER_OF_RINGS>
1

>  <JCHEM_PHYSIOLOGICAL_CHARGE>
1

>  <JCHEM_PKA_STRONGEST_ACIDIC>
14.033634

>  <JCHEM_PKA_STRONGEST_BASIC>
9.3084383

>  <JCHEM_POLAR_SURFACE_AREA>
90.650002

>  <JCHEM_REFRACTIVITY>
84.2034

>  <JCHEM_ROTATABLE_BOND_COUNT>
8

>  <JCHEM_RULE_OF_FIVE>
1

>  <ALOGPS_SOLUBILITY>
6.86e-01 g/l

>  <JCHEM_TRADITIONAL_IUPAC>
oseltamivir

>  <JCHEM_VEBER_RULE>
0

>  <DRUGBANK_ID>
DB00198

>  <DRUG_GROUPS>
approved

>  <GENERIC_NAME>
Oseltamivir

>  <SYNONYMS>
(−)-oseltamivir

>  <SALTS>
Oseltamivir phosphate

$$$$
Erythromycin
 OpenBabel02121510022D

 51 53  0  0  1  0  0  0  0  0999 V2000
    4.5380   -0.9760    0.0000 O   0  0  0  0  0  0  0  0  0  0  0  0
    4.5380    0.4530    0.0000 O   0  0  0  0  0  0  0  0  0  0  0  0
    5.9890   -2.4870    0.0000 O   0  0  0  0  0  0  0  0  0  0  0  0
    4.5380   -2.4050    0.0000 O   0  0  0  0  0  0  0  0  0  0  0  0
    3.3000    1.1680    0.0000 O   0  0  0  0  0  0  0  0  0  0  0  0
    7.0130    1.8820    0.0000 O   0  0  0  0  0  0  0  0  0  0  0  0
    4.1250    3.4210    0.0000 O   0  0  0  0  0  0  0  0  0  0  0  0
    2.8880   -0.9760    0.0000 O   0  0  0  0  0  0  0  0  0  0  0  0
    2.8880    3.3110    0.0000 O   0  0  0  0  0  0  0  0  0  0  0  0
    9.0470    1.3810    0.0000 O   0  0  0  0  0  0  0  0  0  0  0  0
    7.2060    0.9830    0.0000 O   0  0  0  0  0  0  0  0  0  0  0  0
    8.2500   -1.6900    0.0000 O   0  0  0  0  0  0  0  0  0  0  0  0
    7.0130    0.4530    0.0000 O   0  0  0  0  0  0  0  0  0  0  0  0
    2.0620   -2.4050    0.0000 N   0  0  0  0  0  0  0  0  0  0  0  0
    5.3630   -0.9760    0.0000 C   0  0  2  0  0  0  0  0  0  0  0  0
    5.7750   -0.2620    0.0000 C   0  0  2  0  0  0  0  0  0  0  0  0
    5.7750   -1.6900    0.0000 C   0  0  1  0  0  0  0  0  0  0  0  0
    5.3630    0.4530    0.0000 C   0  0  1  0  0  0  0  0  0  0  0  0
    6.6000   -1.6900    0.0000 C   0  0  0  0  0  0  0  0  0  0  0  0
    5.7750    1.1680    0.0000 C   0  0  2  0  0  0  0  0  0  0  0  0
    7.0130   -0.9760    0.0000 C   0  0  2  0  0  0  0  0  0  0  0  0
    4.1250   -1.6900    0.0000 C   0  0  2  0  0  0  0  0  0  0  0  0
    4.1250    1.1680    0.0000 C   0  0  2  0  0  0  0  0  0  0  0  0
    4.1250    2.5960    0.0000 C   0  0  2  0  0  0  0  0  0  0  0  0
    6.6000   -0.2620    0.0000 C   0  0  0  0  0  0  0  0  0  0  0  0
    3.3000   -1.6900    0.0000 C   0  0  1  0  0  0  0  0  0  0  0  0
    2.8880   -2.4050    0.0000 C   0  0  2  0  0  0  0  0  0  0  0  0
    4.5380    1.8820    0.0000 C   0  0  0  0  0  0  0  0  0  0  0  0
    5.1920   -2.2740    0.0000 C   0  0  0  0  0  0  0  0  0  0  0  0
    3.3000    2.5960    0.0000 C   0  0  2  0  0  0  0  0  0  0  0  0
    8.2500   -0.2620    0.0000 C   0  0  2  0  0  0  0  0  0  0  0  0
    8.2500    1.1680    0.0000 C   0  0  1  0  0  0  0  0  0  0  0  0
    3.3000   -3.1200    0.0000 C   0  0  0  0  0  0  0  0  0  0  0  0
    7.8380    0.4530    0.0000 C   0  0  2  0  0  0  0  0  0  0  0  0
    2.8880    1.8820    0.0000 C   0  0  2  0  0  0  0  0  0  0  0  0
    7.8380   -0.9760    0.0000 C   0  0  0  0  0  0  0  0  0  0  0  0
    4.1250   -3.1200    0.0000 C   0  0  1  0  0  0  0  0  0  0  0  0
    7.8380    1.8820    0.0000 C   0  0  1  0  0  0  0  0  0  0  0  0
    6.6000    1.1680    0.0000 C   0  0  0  0  0  0  0  0  0  0  0  0
    5.3630    1.8820    0.0000 C   0  0  0  0  0  0  0  0  0  0  0  0
    6.1880   -0.9760    0.0000 C   0  0  0  0  0  0  0  0  0  0  0  0
    4.8400    3.0090    0.0000 C   0  0  0  0  0  0  0  0  0  0  0  0
    9.0750   -0.2620    0.0000 C   0  0  0  0  0  0  0  0  0  0  0  0
    8.9260    0.6940    0.0000 C   0  0  0  0  0  0  0  0  0  0  0  0
    8.2500    2.5960    0.0000 C   0  0  0  0  0  0  0  0  0  0  0  0
    2.0620    1.8820    0.0000 C   0  0  0  0  0  0  0  0  0  0  0  0
    4.5380   -3.8340    0.0000 C   0  0  0  0  0  0  0  0  0  0  0  0
    1.6500   -3.1200    0.0000 C   0  0  0  0  0  0  0  0  0  0  0  0
    1.6500   -1.6900    0.0000 C   0  0  0  0  0  0  0  0  0  0  0  0
    7.8380    3.3110    0.0000 C   0  0  0  0  0  0  0  0  0  0  0  0
    4.8400    3.8340    0.0000 C   0  0  0  0  0  0  0  0  0  0  0  0
  4 22  1  0  0  0  0
  4 37  1  0  0  0  0
  5 23  1  0  0  0  0
  5 35  1  0  0  0  0
  6 38  1  0  0  0  0
  6 39  1  0  0  0  0
  7 51  1  0  0  0  0
 12 36  2  0  0  0  0
 13 39  2  0  0  0  0
 14 48  1  0  0  0  0
 14 49  1  0  0  0  0
 15  1  1  6  0  0  0
 15 16  1  0  0  0  0
 15 17  1  0  0  0  0
 16 18  1  0  0  0  0
 16 25  1  6  0  0  0
 17  3  1  1  0  0  0
 17 19  1  0  0  0  0
 17 29  1  0  0  0  0
 18  2  1  6  0  0  0
 18 20  1  0  0  0  0
 19 21  1  0  0  0  0
 20 39  1  0  0  0  0
 20 40  1  1  0  0  0
 21 36  1  0  0  0  0
 21 41  1  1  0  0  0
 22  1  1  6  0  0  0
 22 26  1  0  0  0  0
 23  2  1  6  0  0  0
 23 28  1  0  0  0  0
 24  7  1  6  0  0  0
 24 28  1  0  0  0  0
 24 30  1  0  0  0  0
 24 42  1  0  0  0  0
 26  8  1  1  0  0  0
 26 27  1  0  0  0  0
 27 14  1  6  0  0  0
 27 33  1  0  0  0  0
 30  9  1  6  0  0  0
 30 35  1  0  0  0  0
 31 34  1  0  0  0  0
 31 36  1  0  0  0  0
 31 43  1  1  0  0  0
 32 10  1  1  0  0  0
 32 34  1  0  0  0  0
 32 38  1  0  0  0  0
 32 44  1  0  0  0  0
 33 37  1  0  0  0  0
 34 11  1  1  0  0  0
 35 46  1  1  0  0  0
 37 47  1  6  0  0  0
 38 45  1  6  0  0  0
 45 50  1  0  0  0  0
M  END
>  <DATABASE_ID>
DB00199

>  <DATABASE_NAME>
drugbank

>  <SMILES>
O1[C@H](CC)[C@](O)(C)[C@H](O)[C@@H](C)C(=O)[C@@H](C[C@](O)(C)[C@H](O[C@@H]2O[C@@H](C[C@H](N(C)C)[C@H]2O)C)[C@@H](C)[C@H](O[C@@H]2O[C@@H](C)[C@H](O)[C@](OC)(C2)C)[C@@H](C)C1=O)C

>  <INCHI_IDENTIFIER>
InChI=1S/C37H67NO13/c1-14-25-37(10,45)30(41)20(4)27(39)18(2)16-35(8,44)32(51-34-28(40)24(38(11)12)15-19(3)47-34)21(5)29(22(6)33(43)49-25)50-26-17-36(9,46-13)31(42)23(7)48-26/h18-26,28-32,34,40-42,44-45H,14-17H2,1-13H3/t18-,19-,20+,21+,22-,23+,24+,25-,26+,28-,29+,30-,31+,32-,34+,35-,36-,37-/m1/s1

>  <INCHI_KEY>
InChIKey=ULGZDMOVFRHVEP-RWJQBGPGSA-N

>  <JCHEM_ACCEPTOR_COUNT>
13

>  <JCHEM_AVERAGE_POLARIZABILITY>
78.214745

>  <JCHEM_BIOAVAILABILITY>
0

>  <JCHEM_DONOR_COUNT>
5

>  <JCHEM_EXACT_MASS>
733.46124

>  <JCHEM_FORMAL_CHARGE>
0

>  <JCHEM_FORMULA>
C37H67NO13

>  <JCHEM_GHOSE_FILTER>
0

>  <JCHEM_IUPAC>
(3R,4S,5S,6R,7R,9R,11R,12R,13S,14R)-6-{[(2S,3R,4S,6R)-4-(dimethylamino)-3-hydroxy-6-methyloxan-2-yl]oxy}-14-ethyl-7,12,13-trihydroxy-4-{[(2R,4R,5S,6S)-5-hydroxy-4-methoxy-4,6-dimethyloxan-2-yl]oxy}-3,5,7,9,11,13-hexamethyl-1-oxacyclotetradecane-2,10-dione

>  <ALOGPS_LOGP>
2.3699999

>  <JCHEM_LOGP>
2.5963888

>  <ALOGPS_LOGS>
-3.2

>  <JCHEM_MASS>
733.92682

>  <JCHEM_MDDR_LIKE_RULE>
1

>  <JCHEM_NUMBER_OF_RINGS>
3

>  <JCHEM_PHYSIOLOGICAL_CHARGE>
1

>  <JCHEM_PKA>
12.908621

>  <JCHEM_PKA_STRONGEST_ACIDIC>
12.438841

>  <JCHEM_PKA_STRONGEST_BASIC>
8.3809748

>  <JCHEM_POLAR_SURFACE_AREA>
193.91

>  <JCHEM_REFRACTIVITY>
186.03709

>  <JCHEM_ROTATABLE_BOND_COUNT>
7

>  <JCHEM_RULE_OF_FIVE>
0

>  <ALOGPS_SOLUBILITY>
4.59e-01 g/l

>  <JCHEM_TRADITIONAL_IUPAC>
erythromycin

>  <JCHEM_VEBER_RULE>
0

>  <DRUGBANK_ID>
DB00199

>  <DRUG_GROUPS>
approved

>  <GENERIC_NAME>
Erythromycin

>  <SYNONYMS>
3''-O-demethylerythromycin; Abomacetin; Erythromycin A; Erythromycin C

>  <BRANDS>
Akne-Mycin; E.E.S; E.E.S.; Ery; Ery-Ped; ERY-TAB; Eryc; Erygel; Erythra-Derm; Ilosone; ILOTYCIN; Staticin; T-stat

$$$$
Hydroxocobalamin
 OpenBabel02121510022D

 94105  0  0  1  0  0  0  0  0999 V2000
   -0.6470   -1.5660    0.0000 C   0  0  0  0  0  0  0  0  0  0  0  0
   -0.7590   -0.7620    0.0000 N   0  0  0  0  0  0  0  0  0  0  0  0
   -0.7590    0.9360    0.0000 N   0  3  3  0  0  0  0  0  0  0  0  0
   -0.6470    1.7400    0.0000 C   0  5  0  0  0  0  0  0  0  0  0  0
   -1.3600    2.1160    0.0000 C   0  0  1  0  0  0  0  0  0  0  0  0
   -1.4780    2.9330    0.0000 C   0  0  0  0  0  0  0  0  0  0  0  0
   -0.8300    3.4440    0.0000 C   0  0  0  0  0  0  0  0  0  0  0  0
   -0.9490    4.2600    0.0000 C   0  0  0  0  0  0  0  0  0  0  0  0
   -1.7150    4.5660    0.0000 O   0  0  0  0  0  0  0  0  0  0  0  0
    0.7940    1.7400    0.0000 C   0  0  0  0  0  0  0  0  0  0  0  0
    0.9180    0.9360    0.0000 N   0  3  0  0  0  0  0  0  0  0  0  0
    1.7420    0.7870    0.0000 C   0  5  0  0  0  0  0  0  0  0  0  0
    2.1570    0.0870    0.0000 C   0  0  0  0  0  0  0  0  0  0  0  0
    1.7420   -0.6170    0.0000 C   0  0  0  0  0  0  0  0  0  0  0  0
    0.9180   -0.7620    0.0000 N   0  3  0  0  0  0  0  0  0  0  0  0
    0.7940   -1.5660    0.0000 C   0  5  0  0  0  0  0  0  0  0  0  0
    1.5310   -1.9460    0.0000 C   0  0  1  0  0  0  0  0  0  0  0  0
    1.6540   -2.7620    0.0000 C   0  0  0  0  0  0  0  0  0  0  0  0
    2.4210   -3.0640    0.0000 C   0  0  0  0  0  0  0  0  0  0  0  0
    2.5440   -3.8800    0.0000 C   0  0  0  0  0  0  0  0  0  0  0  0
    3.3110   -4.1820    0.0000 O   0  0  0  0  0  0  0  0  0  0  0  0
    2.1240   -1.3670    0.0000 C   0  0  0  0  0  0  0  0  0  0  0  0
    2.7620   -1.8900    0.0000 C   0  0  0  0  0  0  0  0  0  0  0  0
    2.8950   -1.0760    0.0000 C   0  0  0  0  0  0  0  0  0  0  0  0
    0.0900    2.1500    0.0000 C   0  0  0  0  0  0  0  0  0  0  0  0
    0.0900    2.9740    0.0000 C   0  0  0  0  0  0  0  0  0  0  0  0
    0.0900   -1.9800    0.0000 C   0  0  0  0  0  0  0  0  0  0  0  0
    0.0900   -2.8050    0.0000 C   0  0  0  0  0  0  0  0  0  0  0  0
   -1.5710   -0.6170    0.0000 C   0  0  1  0  0  0  0  0  0  0  0  0
   -2.3680   -0.4040    0.0000 H   0  0  0  0  0  0  0  0  0  0  0  0
   -1.5710    0.8120    0.0000 C   0  0  2  0  0  0  0  0  0  0  0  0
   -2.3680    0.5980    0.0000 C   0  0  0  0  0  0  0  0  0  0  0  0
   -2.0740   -3.1840    0.0000 C   0  0  0  0  0  0  0  0  0  0  0  0
   -2.7880   -3.5960    0.0000 C   0  0  0  0  0  0  0  0  0  0  0  0
   -3.5030   -3.1840    0.0000 O   0  0  0  0  0  0  0  0  0  0  0  0
   -2.7880   -4.4220    0.0000 N   0  0  0  0  0  0  0  0  0  0  0  0
   -3.5030   -4.8340    0.0000 C   0  0  0  0  0  0  0  0  0  0  0  0
   -3.5030   -5.6590    0.0000 C   0  0  2  0  0  0  0  0  0  0  0  0
   -2.0740   -2.3590    0.0000 C   0  0  0  0  0  0  0  0  0  0  0  0
   -1.3600   -1.9460    0.0000 C   0  0  1  0  0  0  0  0  0  0  0  0
   -1.3600   -2.7720    0.0000 C   0  0  0  0  0  0  0  0  0  0  0  0
   -0.3010    4.7710    0.0000 N   0  0  0  0  0  0  0  0  0  0  0  0
    1.8980   -4.3940    0.0000 N   0  0  0  0  0  0  0  0  0  0  0  0
    2.5000   -5.6860    0.0000 C   0  0  0  0  0  0  0  0  0  0  0  0
    1.6750   -7.1150    0.0000 C   0  0  0  0  0  0  0  0  0  0  0  0
    1.6750   -5.6860    0.0000 C   0  0  0  0  0  0  0  0  0  0  0  0
    0.3690   -5.4090    0.0000 C   0  5  0  0  0  0  0  0  0  0  0  0
    1.2630   -6.4010    0.0000 C   0  0  0  0  0  0  0  0  0  0  0  0
    1.1230   -5.0730    0.0000 N   0  3  0  0  0  0  0  0  0  0  0  0
    0.4560   -6.2290    0.0000 N   0  0  0  0  0  0  0  0  0  0  0  0
    2.9130   -6.4010    0.0000 C   0  0  0  0  0  0  0  0  0  0  0  0
    3.7380   -6.4010    0.0000 C   0  0  0  0  0  0  0  0  0  0  0  0
    2.5000   -7.1150    0.0000 C   0  0  0  0  0  0  0  0  0  0  0  0
    2.9130   -7.8300    0.0000 C   0  0  0  0  0  0  0  0  0  0  0  0
   -0.1580   -6.7820    0.0000 C   0  0  1  0  0  0  0  0  0  0  0  0
   -0.0710   -7.6020    0.0000 O   0  0  0  0  0  0  0  0  0  0  0  0
   -0.8250   -7.9380    0.0000 C   0  0  2  0  0  0  0  0  0  0  0  0
   -0.9960   -8.7440    0.0000 C   0  0  0  0  0  0  0  0  0  0  0  0
   -1.7810   -8.9990    0.0000 O   0  0  0  0  0  0  0  0  0  0  0  0
   -0.9640   -6.6100    0.0000 C   0  0  2  0  0  0  0  0  0  0  0  0
   -1.3000   -5.8560    0.0000 O   0  0  0  0  0  0  0  0  0  0  0  0
   -1.3770   -7.3240    0.0000 C   0  0  2  0  0  0  0  0  0  0  0  0
   -2.1970   -7.4110    0.0000 O   0  0  0  0  0  0  0  0  0  0  0  0
    0.0600    0.1370    0.0000 Co  0  3  0  0  0  0  0  0  0  0  0  0
   -0.4320    2.9510    0.0000 O   0  0  0  0  0  0  0  0  0  0  0  0
   -0.1460    3.5510    0.0000 H   0  0  0  0  0  0  0  0  0  0  0  0
    2.1240    1.5370    0.0000 C   0  0  1  0  0  0  0  0  0  0  0  0
    2.8380    1.9490    0.0000 C   0  0  0  0  0  0  0  0  0  0  0  0
    3.5520    1.5360    0.0000 C   0  0  0  0  0  0  0  0  0  0  0  0
    4.2670    1.9490    0.0000 C   0  0  0  0  0  0  0  0  0  0  0  0
    4.2670    2.7740    0.0000 O   0  0  0  0  0  0  0  0  0  0  0  0
    4.9810    1.5360    0.0000 N   0  0  0  0  0  0  0  0  0  0  0  0
   -1.9520   -1.3670    0.0000 C   0  0  1  0  0  0  0  0  0  0  0  0
   -2.6660   -1.7790    0.0000 C   0  0  0  0  0  0  0  0  0  0  0  0
   -3.3810   -1.3670    0.0000 C   0  0  0  0  0  0  0  0  0  0  0  0
   -3.3810   -0.5420    0.0000 O   0  0  0  0  0  0  0  0  0  0  0  0
   -4.0950   -1.7790    0.0000 N   0  0  0  0  0  0  0  0  0  0  0  0
   -1.9520    1.5370    0.0000 C   0  0  1  0  0  0  0  0  0  0  0  0
   -2.6660    1.1240    0.0000 C   0  0  0  0  0  0  0  0  0  0  0  0
   -3.3810    1.5370    0.0000 C   0  0  0  0  0  0  0  0  0  0  0  0
   -4.0950    1.1240    0.0000 N   0  0  0  0  0  0  0  0  0  0  0  0
   -3.3810    2.3620    0.0000 O   0  0  0  0  0  0  0  0  0  0  0  0
   -2.5350    2.1200    0.0000 C   0  0  0  0  0  0  0  0  0  0  0  0
    1.5310    2.1160    0.0000 C   0  0  1  0  0  0  0  0  0  0  0  0
    2.2460    2.5290    0.0000 C   0  0  0  0  0  0  0  0  0  0  0  0
    1.5310    2.9410    0.0000 C   0  0  0  0  0  0  0  0  0  0  0  0
    2.2460    3.3540    0.0000 C   0  0  0  0  0  0  0  0  0  0  0  0
    2.2460    4.1790    0.0000 O   0  0  0  0  0  0  0  0  0  0  0  0
    2.9600    2.9410    0.0000 N   0  0  0  0  0  0  0  0  0  0  0  0
   -2.7810   -6.8270    0.0000 P   0  0  3  0  0  0  0  0  0  0  0  0
   -2.7810   -6.0020    0.0000 O   0  0  0  0  0  0  0  0  0  0  0  0
   -3.1930   -7.5420    0.0000 O   0  0  0  0  0  0  0  0  0  0  0  0
   -4.2180   -6.0720    0.0000 C   0  0  0  0  0  0  0  0  0  0  0  0
   -3.5780   -7.0410    0.0000 O   0  5  0  0  0  0  0  0  0  0  0  0
  1  2  1  0  0  0  0
  1 27  2  0  0  0  0
  1 40  1  0  0  0  0
  2 29  1  0  0  0  0
  2 64  1  0  0  0  0
  3  4  1  0  0  0  0
  3 31  1  0  0  0  0
  3 64  1  0  0  0  0
  4  5  1  0  0  0  0
  4 25  1  0  0  0  0
  5  6  1  6  0  0  0
  5 78  1  0  0  0  0
  6  7  1  0  0  0  0
  7  8  1  0  0  0  0
  8  9  2  0  0  0  0
  8 42  1  0  0  0  0
 10 11  1  0  0  0  0
 10 25  2  0  0  0  0
 10 84  1  0  0  0  0
 11 12  1  0  0  0  0
 11 64  1  0  0  0  0
 12 13  1  0  0  0  0
 12 67  1  0  0  0  0
 13 14  2  0  0  0  0
 14 15  1  0  0  0  0
 14 22  1  0  0  0  0
 15 16  1  0  0  0  0
 15 64  1  0  0  0  0
 16 17  1  0  0  0  0
 16 27  1  0  0  0  0
 17 18  1  6  0  0  0
 17 22  1  0  0  0  0
 18 19  1  0  0  0  0
 19 20  1  0  0  0  0
 20 21  2  0  0  0  0
 20 43  1  0  0  0  0
 22 23  1  0  0  0  0
 22 24  1  0  0  0  0
 25 26  1  0  0  0  0
 27 28  1  0  0  0  0
 29 30  1  1  0  0  0
 29 31  1  0  0  0  0
 29 73  1  0  0  0  0
 31 32  1  6  0  0  0
 31 78  1  0  0  0  0
 33 34  1  0  0  0  0
 33 39  1  0  0  0  0
 34 35  2  0  0  0  0
 34 36  1  0  0  0  0
 36 37  1  0  0  0  0
 37 38  1  0  0  0  0
 38 91  1  0  0  0  0
 38 93  1  6  0  0  0
 39 40  1  0  0  0  0
 40 41  1  1  0  0  0
 40 73  1  0  0  0  0
 44 46  2  0  0  0  0
 44 51  1  0  0  0  0
 45 48  2  0  0  0  0
 45 53  1  0  0  0  0
 46 48  1  0  0  0  0
 46 49  1  0  0  0  0
 47 49  1  0  0  0  0
 47 50  1  0  0  0  0
 48 50  1  0  0  0  0
 49 64  1  0  0  0  0
 51 52  1  0  0  0  0
 51 53  2  0  0  0  0
 53 54  1  0  0  0  0
 55 50  1  1  0  0  0
 55 56  1  0  0  0  0
 55 60  1  0  0  0  0
 56 57  1  0  0  0  0
 57 58  1  6  0  0  0
 57 62  1  0  0  0  0
 58 59  1  0  0  0  0
 60 61  1  1  0  0  0
 60 62  1  0  0  0  0
 62 63  1  1  0  0  0
 63 90  1  0  0  0  0
 64 65  1  0  0  0  0
 65 66  1  0  0  0  0
 67 68  1  6  0  0  0
 67 84  1  0  0  0  0
 68 69  1  0  0  0  0
 69 70  1  0  0  0  0
 70 71  2  0  0  0  0
 70 72  1  0  0  0  0
 73 74  1  1  0  0  0
 74 75  1  0  0  0  0
 75 76  2  0  0  0  0
 75 77  1  0  0  0  0
 78 79  1  1  0  0  0
 78 83  1  0  0  0  0
 79 80  1  0  0  0  0
 80 81  1  0  0  0  0
 80 82  2  0  0  0  0
 84 85  1  6  0  0  0
 84 86  1  0  0  0  0
 86 87  1  0  0  0  0
 87 88  2  0  0  0  0
 87 89  1  0  0  0  0
 90 91  1  0  0  0  0
 90 92  2  0  0  0  0
 90 94  1  0  0  0  0
M  CHG  8   3   1   4  -1  11   1  12  -1  15   1  16  -1  47  -1  49   1
M  CHG  2  64   1  94  -1
M  END
>  <DATABASE_ID>
DB00200

>  <DATABASE_NAME>
drugbank

>  <SMILES>
[Co+](O)N\1[C@H]2[C@@]3(N=C([C@@H](CCC(=O)N)[C@@]3(CC(=O)N)C)\C(=C\3/N=C(\C=C\4/N=C([C@@H](CCC(=O)N)C/4(C)C)\C(=C/1\[C@@](CCC(=O)NC[C@H](OP(O[C@H]1[C@@H](O)[C@H](O[C@@H]1CO)n1c4cc(C)c(cc4nc1)C)(=O)[O-])C)(C)[C@H]2CC(=O)N)\C)[C@@H](CCC(=O)N)[C@@]/3(CC(=O)N)C)\C)C

>  <INCHI_IDENTIFIER>
InChI=1S/C62H90N13O14P.Co.H2O/c1-29-20-39-40(21-30(29)2)75(28-70-39)57-52(84)53(41(27-76)87-57)89-90(85,86)88-31(3)26-69-49(83)18-19-59(8)37(22-46(66)80)56-62(11)61(10,25-48(68)82)36(14-17-45(65)79)51(74-62)33(5)55-60(9,24-47(67)81)34(12-15-43(63)77)38(71-55)23-42-58(6,7)35(13-16-44(64)78)50(72-42)32(4)54(59)73-56;;/h20-21,23,28,31,34-37,41,52-53,56-57,76,84H,12-19,22,24-27H2,1-11H3,(H15,63,64,65,66,67,68,69,71,72,73,74,77,78,79,80,81,82,83,85,86);;1H2/q;+3;/p-3/t31-,34-,35-,36-,37+,41-,52-,53-,56-,57+,59-,60+,61+,62+;;/m1../s1

>  <INCHI_KEY>
InChIKey=YOZNUFWCRFCGIH-WZHZPDAFSA-K

>  <JCHEM_BIOAVAILABILITY>
0

>  <JCHEM_EXACT_MASS>
1345.567

>  <JCHEM_FORMAL_CHARGE>
0

>  <JCHEM_FORMULA>
C62H89CoN13O15P

>  <JCHEM_GHOSE_FILTER>
0

>  <ALOGPS_LOGP>
2.53

>  <ALOGPS_LOGS>
-4.98

>  <JCHEM_MASS>
1346.3551

>  <JCHEM_MDDR_LIKE_RULE>
1

>  <JCHEM_NUMBER_OF_RINGS>
8

>  <JCHEM_PHYSIOLOGICAL_CHARGE>
3

>  <JCHEM_PKA_STRONGEST_ACIDIC>
1.8410834

>  <JCHEM_PKA_STRONGEST_BASIC>
8.7825251

>  <JCHEM_RULE_OF_FIVE>
0

>  <ALOGPS_SOLUBILITY>
1.46e-02 g/l

>  <JCHEM_VEBER_RULE>
0

>  <DRUGBANK_ID>
DB00200

>  <DRUG_GROUPS>
approved

>  <GENERIC_NAME>
Hydroxocobalamin

>  <SYNONYMS>
Hydroxycobalamin; Vitamin B-12b

>  <BRANDS>
Alpha-Redisol; Cyanokit; Hydrocobamine

$$$$
Caffeine
 OpenBabel02121510022D

 14 15  0  0  0  0  0  0  0  0999 V2000
    3.0790    1.6500    0.0000 O   0  0  0  0  0  0  0  0  0  0  0  0
    1.6500   -0.8250    0.0000 O   0  0  0  0  0  0  0  0  0  0  0  0
    3.0790   -0.8250    0.0000 N   0  0  0  0  0  0  0  0  0  0  0  0
    4.5740    0.6640    0.0000 N   0  0  0  0  0  0  0  0  0  0  0  0
    2.3640    0.4120    0.0000 N   0  0  0  0  0  0  0  0  0  0  0  0
    4.5740   -0.6640    0.0000 N   0  0  0  0  0  0  0  0  0  0  0  0
    3.7940    0.4120    0.0000 C   0  0  0  0  0  0  0  0  0  0  0  0
    3.7940   -0.4120    0.0000 C   0  0  0  0  0  0  0  0  0  0  0  0
    3.0790    0.8250    0.0000 C   0  0  0  0  0  0  0  0  0  0  0  0
    2.3640   -0.4120    0.0000 C   0  0  0  0  0  0  0  0  0  0  0  0
    5.0560    0.0000    0.0000 C   0  0  0  0  0  0  0  0  0  0  0  0
    3.0790   -1.6500    0.0000 C   0  0  0  0  0  0  0  0  0  0  0  0
    4.8300    1.4480    0.0000 C   0  0  0  0  0  0  0  0  0  0  0  0
    1.6500    0.8250    0.0000 C   0  0  0  0  0  0  0  0  0  0  0  0
  1  9  2  0  0  0  0
  2 10  2  0  0  0  0
  3  8  1  0  0  0  0
  3 10  1  0  0  0  0
  3 12  1  0  0  0  0
  4  7  1  0  0  0  0
  4 11  1  0  0  0  0
  4 13  1  0  0  0  0
  5  9  1  0  0  0  0
  5 10  1  0  0  0  0
  5 14  1  0  0  0  0
  6  8  1  0  0  0  0
  6 11  2  0  0  0  0
  7  8  2  0  0  0  0
  7  9  1  0  0  0  0
M  END
>  <DATABASE_ID>
DB00201

>  <DATABASE_NAME>
drugbank

>  <SMILES>
O=C1N(C)C(=O)N(c2ncn(c12)C)C

>  <INCHI_IDENTIFIER>
InChI=1S/C8H10N4O2/c1-10-4-9-6-5(10)7(13)12(3)8(14)11(6)2/h4H,1-3H3

>  <INCHI_KEY>
InChIKey=RYYVLZVUVIJVGH-UHFFFAOYSA-N

>  <JCHEM_ACCEPTOR_COUNT>
3

>  <JCHEM_AVERAGE_POLARIZABILITY>
18.954931

>  <JCHEM_BIOAVAILABILITY>
1

>  <JCHEM_DONOR_COUNT>
0

>  <JCHEM_EXACT_MASS>
194.08037

>  <JCHEM_FORMAL_CHARGE>
0

>  <JCHEM_FORMULA>
C8H10N4O2

>  <JCHEM_GHOSE_FILTER>
0

>  <JCHEM_IUPAC>
1,3,7-trimethyl-2,3,6,7-tetrahydro-1H-purine-2,6-dione

>  <ALOGPS_LOGP>
-0.23999999

>  <JCHEM_LOGP>
-0.54564559

>  <ALOGPS_LOGS>
-1.25

>  <JCHEM_MASS>
194.1906

>  <JCHEM_MDDR_LIKE_RULE>
0

>  <JCHEM_NUMBER_OF_RINGS>
2

>  <JCHEM_PHYSIOLOGICAL_CHARGE>
0

>  <JCHEM_PKA_STRONGEST_BASIC>
-0.92418438

>  <JCHEM_POLAR_SURFACE_AREA>
58.439999

>  <JCHEM_REFRACTIVITY>
49.8312

>  <JCHEM_ROTATABLE_BOND_COUNT>
0

>  <JCHEM_RULE_OF_FIVE>
1

>  <ALOGPS_SOLUBILITY>
1.10e+01 g/l

>  <JCHEM_TRADITIONAL_IUPAC>
caffeine

>  <JCHEM_VEBER_RULE>
0

>  <DRUGBANK_ID>
DB00201

>  <DRUG_GROUPS>
approved

>  <GENERIC_NAME>
Caffeine

>  <SYNONYMS>
1-methyltheobromine; 1,3,7-trimethylpurine-2,6-dione; 1,3,7-trimethylxanthine; 7-methyltheophylline; Anhydrous caffeine; Cafeína; Caféine; Coffein; Guaranine; Koffein; Mateína; Methyltheobromine; Theine

>  <BRANDS>
Cafcit; Caffedrine; Dexitac; Durvitan; Enerjets; No-Doz; Pep-Back; Quick Pep; Vivarin; Wake-Up

>  <SALTS>
Caffeine citrate

$$$$
Sildenafil
 OpenBabel02121510022D

 33 36  0  0  0  0  0  0  0  0999 V2000
    4.5080   -0.4120    0.0000 S   0  0  0  0  0  0  0  0  0  0  0  0
    4.0960    0.3020    0.0000 O   0  0  0  0  0  0  0  0  0  0  0  0
    4.9200   -1.1270    0.0000 O   0  0  0  0  0  0  0  0  0  0  0  0
    7.3660    1.2380    0.0000 O   0  0  0  0  0  0  0  0  0  0  0  0
    8.0800   -2.4750    0.0000 O   0  0  0  0  0  0  0  0  0  0  0  0
    3.7940   -0.8250    0.0000 N   0  0  0  0  0  0  0  0  0  0  0  0
    2.3640   -1.6500    0.0000 N   0  0  0  0  0  0  0  0  0  0  0  0
    8.0800    0.0000    0.0000 N   0  0  0  0  0  0  0  0  0  0  0  0
    9.5760   -1.4890    0.0000 N   0  0  0  0  0  0  0  0  0  0  0  0
   10.0570   -0.8250    0.0000 N   0  0  0  0  0  0  0  0  0  0  0  0
    7.3660   -1.2380    0.0000 N   0  0  0  0  0  0  0  0  0  0  0  0
    3.0790   -0.4120    0.0000 C   0  0  0  0  0  0  0  0  0  0  0  0
    3.7940   -1.6500    0.0000 C   0  0  0  0  0  0  0  0  0  0  0  0
    2.3640   -0.8250    0.0000 C   0  0  0  0  0  0  0  0  0  0  0  0
    3.0790   -2.0620    0.0000 C   0  0  0  0  0  0  0  0  0  0  0  0
    5.2220    0.0000    0.0000 C   0  0  0  0  0  0  0  0  0  0  0  0
    1.6500   -2.0620    0.0000 C   0  0  0  0  0  0  0  0  0  0  0  0
    5.9370   -0.4120    0.0000 C   0  0  0  0  0  0  0  0  0  0  0  0
    6.6520    0.0000    0.0000 C   0  0  0  0  0  0  0  0  0  0  0  0
    5.2220    0.8250    0.0000 C   0  0  0  0  0  0  0  0  0  0  0  0
    7.3660   -0.4120    0.0000 C   0  0  0  0  0  0  0  0  0  0  0  0
    8.7950   -0.4120    0.0000 C   0  0  0  0  0  0  0  0  0  0  0  0
    6.6520    0.8250    0.0000 C   0  0  0  0  0  0  0  0  0  0  0  0
    5.9370    1.2380    0.0000 C   0  0  0  0  0  0  0  0  0  0  0  0
    9.5760   -0.1610    0.0000 C   0  0  0  0  0  0  0  0  0  0  0  0
    8.7950   -1.2380    0.0000 C   0  0  0  0  0  0  0  0  0  0  0  0
    9.8320    0.6230    0.0000 C   0  0  0  0  0  0  0  0  0  0  0  0
    8.0800   -1.6500    0.0000 C   0  0  0  0  0  0  0  0  0  0  0  0
   10.6390    0.7930    0.0000 C   0  0  0  0  0  0  0  0  0  0  0  0
    9.8320   -2.2730    0.0000 C   0  0  0  0  0  0  0  0  0  0  0  0
   10.8950    1.5770    0.0000 C   0  0  0  0  0  0  0  0  0  0  0  0
    7.3660    2.0620    0.0000 C   0  0  0  0  0  0  0  0  0  0  0  0
    8.0800    2.4750    0.0000 C   0  0  0  0  0  0  0  0  0  0  0  0
  1  2  2  0  0  0  0
  1  3  2  0  0  0  0
  1  6  1  0  0  0  0
  1 16  1  0  0  0  0
  4 23  1  0  0  0  0
  4 32  1  0  0  0  0
  5 28  2  0  0  0  0
  6 12  1  0  0  0  0
  6 13  1  0  0  0  0
  7 14  1  0  0  0  0
  7 15  1  0  0  0  0
  7 17  1  0  0  0  0
  8 21  1  0  0  0  0
  8 22  1  0  0  0  0
  9 10  1  0  0  0  0
  9 26  1  0  0  0  0
  9 30  1  0  0  0  0
 10 25  2  0  0  0  0
 11 21  2  0  0  0  0
 11 28  1  0  0  0  0
 12 14  1  0  0  0  0
 13 15  1  0  0  0  0
 16 18  2  0  0  0  0
 16 20  1  0  0  0  0
 18 19  1  0  0  0  0
 19 21  1  0  0  0  0
 19 23  2  0  0  0  0
 20 24  2  0  0  0  0
 22 25  1  0  0  0  0
 22 26  2  0  0  0  0
 23 24  1  0  0  0  0
 25 27  1  0  0  0  0
 26 28  1  0  0  0  0
 27 29  1  0  0  0  0
 29 31  1  0  0  0  0
 32 33  1  0  0  0  0
M  END
>  <DATABASE_ID>
DB00203

>  <DATABASE_NAME>
drugbank

>  <SMILES>
S(=O)(=O)(N1CCN(CC1)C)c1cc(C2=NC(=O)c3n(nc(c3N2)CCC)C)c(OCC)cc1

>  <INCHI_IDENTIFIER>
InChI=1S/C22H30N6O4S/c1-5-7-17-19-20(27(4)25-17)22(29)24-21(23-19)16-14-15(8-9-18(16)32-6-2)33(30,31)28-12-10-26(3)11-13-28/h8-9,14H,5-7,10-13H2,1-4H3,(H,23,24,29)

>  <INCHI_KEY>
InChIKey=BNRNXUUZRGQAQC-UHFFFAOYSA-N

>  <JCHEM_ACCEPTOR_COUNT>
8

>  <JCHEM_AVERAGE_POLARIZABILITY>
51.177399

>  <JCHEM_BIOAVAILABILITY>
1

>  <JCHEM_DONOR_COUNT>
1

>  <JCHEM_EXACT_MASS>
474.20493

>  <JCHEM_FORMAL_CHARGE>
0

>  <JCHEM_FORMULA>
C22H30N6O4S

>  <JCHEM_GHOSE_FILTER>
0

>  <JCHEM_IUPAC>
5-[2-ethoxy-5-(4-methylpiperazine-1-sulfonyl)phenyl]-1-methyl-3-propyl-1H,4H,7H-pyrazolo[4,3-d]pyrimidin-7-one

>  <ALOGPS_LOGP>
2.3499999

>  <JCHEM_LOGP>
1.6464821

>  <ALOGPS_LOGS>
-3.04

>  <JCHEM_MASS>
474.57599

>  <JCHEM_MDDR_LIKE_RULE>
1

>  <JCHEM_NUMBER_OF_RINGS>
4

>  <JCHEM_PHYSIOLOGICAL_CHARGE>
0

>  <JCHEM_PKA_STRONGEST_ACIDIC>
7.2715216

>  <JCHEM_PKA_STRONGEST_BASIC>
5.9693713

>  <JCHEM_POLAR_SURFACE_AREA>
109.13

>  <JCHEM_REFRACTIVITY>
139.44051

>  <JCHEM_ROTATABLE_BOND_COUNT>
6

>  <JCHEM_RULE_OF_FIVE>
1

>  <ALOGPS_SOLUBILITY>
4.33e-01 g/l

>  <JCHEM_TRADITIONAL_IUPAC>
sildenafil

>  <JCHEM_VEBER_RULE>
0

>  <DRUGBANK_ID>
DB00203

>  <DRUG_GROUPS>
approved; investigational

>  <GENERIC_NAME>
Sildenafil

>  <BRANDS>
Revatio; Viagra

>  <SALTS>
Sildenafil Citrate

$$$$
Dofetilide
 OpenBabel02121510022D

 29 30  0  0  1  0  0  0  0  0999 V2000
    5.9370    5.1560    0.0000 S   0  0  0  0  0  0  0  0  0  0  0  0
    2.3640   -5.1560    0.0000 S   0  0  0  0  0  0  0  0  0  0  0  0
    3.0790   -1.4440    0.0000 O   0  0  0  0  0  0  0  0  0  0  0  0
    6.3500    4.4420    0.0000 O   0  0  0  0  0  0  0  0  0  0  0  0
    5.5240    5.8710    0.0000 O   0  0  0  0  0  0  0  0  0  0  0  0
    1.9520   -4.4420    0.0000 O   0  0  0  0  0  0  0  0  0  0  0  0
    2.7770   -5.8710    0.0000 O   0  0  0  0  0  0  0  0  0  0  0  0
    4.5080    0.2060    0.0000 N   0  0  0  0  0  0  0  0  0  0  0  0
    5.2220    4.7440    0.0000 N   0  0  0  0  0  0  0  0  0  0  0  0
    3.0790   -4.7440    0.0000 N   0  0  0  0  0  0  0  0  0  0  0  0
    4.5080    1.0310    0.0000 C   0  0  0  0  0  0  0  0  0  0  0  0
    5.2220    1.4440    0.0000 C   0  0  0  0  0  0  0  0  0  0  0  0
    3.7940   -0.2060    0.0000 C   0  0  0  0  0  0  0  0  0  0  0  0
    5.2220    2.2690    0.0000 C   0  0  0  0  0  0  0  0  0  0  0  0
    3.7940   -1.0310    0.0000 C   0  0  0  0  0  0  0  0  0  0  0  0
    5.2220   -0.2060    0.0000 C   0  0  0  0  0  0  0  0  0  0  0  0
    4.5080    2.6810    0.0000 C   0  0  0  0  0  0  0  0  0  0  0  0
    5.9370    2.6810    0.0000 C   0  0  0  0  0  0  0  0  0  0  0  0
    5.2220    3.9190    0.0000 C   0  0  0  0  0  0  0  0  0  0  0  0
    4.5080    3.5060    0.0000 C   0  0  0  0  0  0  0  0  0  0  0  0
    5.9370    3.5060    0.0000 C   0  0  0  0  0  0  0  0  0  0  0  0
    3.0790   -2.2690    0.0000 C   0  0  0  0  0  0  0  0  0  0  0  0
    3.0790   -3.9190    0.0000 C   0  0  0  0  0  0  0  0  0  0  0  0
    2.3640   -2.6810    0.0000 C   0  0  0  0  0  0  0  0  0  0  0  0
    3.7940   -2.6810    0.0000 C   0  0  0  0  0  0  0  0  0  0  0  0
    2.3640   -3.5060    0.0000 C   0  0  0  0  0  0  0  0  0  0  0  0
    3.7940   -3.5060    0.0000 C   0  0  0  0  0  0  0  0  0  0  0  0
    6.6520    5.5690    0.0000 C   0  0  0  0  0  0  0  0  0  0  0  0
    1.6500   -5.5690    0.0000 C   0  0  0  0  0  0  0  0  0  0  0  0
  1  4  2  0  0  0  0
  1  5  2  0  0  0  0
  1  9  1  0  0  0  0
  1 28  1  0  0  0  0
  2  6  2  0  0  0  0
  2  7  2  0  0  0  0
  2 10  1  0  0  0  0
  2 29  1  0  0  0  0
  3 15  1  0  0  0  0
  3 22  1  0  0  0  0
  8 11  1  0  0  0  0
  8 13  1  0  0  0  0
  8 16  1  0  0  0  0
  9 19  1  0  0  0  0
 10 23  1  0  0  0  0
 11 12  1  0  0  0  0
 12 14  1  0  0  0  0
 13 15  1  0  0  0  0
 14 17  2  0  0  0  0
 14 18  1  0  0  0  0
 17 20  1  0  0  0  0
 18 21  2  0  0  0  0
 19 20  2  0  0  0  0
 19 21  1  0  0  0  0
 22 24  2  0  0  0  0
 22 25  1  0  0  0  0
 23 26  2  0  0  0  0
 23 27  1  0  0  0  0
 24 26  1  0  0  0  0
 25 27  2  0  0  0  0
M  END
>  <DATABASE_ID>
DB00204

>  <DATABASE_NAME>
drugbank

>  <SMILES>
S(=O)(=O)(Nc1ccc(cc1)CCN(CCOc1ccc(NS(=O)(=O)C)cc1)C)C

>  <INCHI_IDENTIFIER>
InChI=1S/C19H27N3O5S2/c1-22(13-12-16-4-6-17(7-5-16)20-28(2,23)24)14-15-27-19-10-8-18(9-11-19)21-29(3,25)26/h4-11,20-21H,12-15H2,1-3H3

>  <INCHI_KEY>
InChIKey=IXTMWRCNAAVVAI-UHFFFAOYSA-N

>  <JCHEM_ACCEPTOR_COUNT>
6

>  <JCHEM_AVERAGE_POLARIZABILITY>
46.031448

>  <JCHEM_BIOAVAILABILITY>
1

>  <JCHEM_DONOR_COUNT>
2

>  <JCHEM_EXACT_MASS>
441.13922

>  <JCHEM_FORMAL_CHARGE>
0

>  <JCHEM_FORMULA>
C19H27N3O5S2

>  <JCHEM_GHOSE_FILTER>
1

>  <JCHEM_IUPAC>
N-[4-(2-{[2-(4-methanesulfonamidophenoxy)ethyl](methyl)amino}ethyl)phenyl]methanesulfonamide

>  <ALOGPS_LOGP>
2.1700001

>  <JCHEM_LOGP>
0.23791575

>  <ALOGPS_LOGS>
-4.3499999

>  <JCHEM_MASS>
441.565

>  <JCHEM_MDDR_LIKE_RULE>
0

>  <JCHEM_NUMBER_OF_RINGS>
2

>  <JCHEM_PHYSIOLOGICAL_CHARGE>
1

>  <JCHEM_PKA>
10.777112

>  <JCHEM_PKA_STRONGEST_ACIDIC>
10.145184

>  <JCHEM_PKA_STRONGEST_BASIC>
8.9893932

>  <JCHEM_POLAR_SURFACE_AREA>
104.81

>  <JCHEM_REFRACTIVITY>
113.2743

>  <JCHEM_ROTATABLE_BOND_COUNT>
9

>  <JCHEM_RULE_OF_FIVE>
1

>  <ALOGPS_SOLUBILITY>
1.98e-02 g/l

>  <JCHEM_TRADITIONAL_IUPAC>
dofetilide

>  <JCHEM_VEBER_RULE>
0

>  <DRUGBANK_ID>
DB00204

>  <DRUG_GROUPS>
approved

>  <GENERIC_NAME>
Dofetilide

>  <SYNONYMS>
Dofetilida; Dofetilidum

>  <BRANDS>
Tikosyn

$$$$
Pyrimethamine
 OpenBabel02121510022D

 17 18  0  0  0  0  0  0  0  0999 V2000
    3.5220    3.0150    0.0000 Cl  0  0  0  0  0  0  0  0  0  0  0  0
    4.2360   -1.5220    0.0000 N   0  0  0  0  0  0  0  0  0  0  0  0
    2.8080   -1.5220    0.0000 N   0  0  0  0  0  0  0  0  0  0  0  0
    2.0930   -0.2850    0.0000 N   0  0  0  0  0  0  0  0  0  0  0  0
    3.5220   -2.7600    0.0000 N   0  0  0  0  0  0  0  0  0  0  0  0
    3.5220   -0.2850    0.0000 C   0  0  0  0  0  0  0  0  0  0  0  0
    4.2360   -0.6970    0.0000 C   0  0  0  0  0  0  0  0  0  0  0  0
    4.9510   -0.2850    0.0000 C   0  0  0  0  0  0  0  0  0  0  0  0
    3.5220    0.5400    0.0000 C   0  0  0  0  0  0  0  0  0  0  0  0
    2.8080   -0.6970    0.0000 C   0  0  0  0  0  0  0  0  0  0  0  0
    2.8080    0.9530    0.0000 C   0  0  0  0  0  0  0  0  0  0  0  0
    4.2360    0.9530    0.0000 C   0  0  0  0  0  0  0  0  0  0  0  0
    5.6660   -0.6970    0.0000 C   0  0  0  0  0  0  0  0  0  0  0  0
    3.5220   -1.9350    0.0000 C   0  0  0  0  0  0  0  0  0  0  0  0
    2.8080    1.7780    0.0000 C   0  0  0  0  0  0  0  0  0  0  0  0
    4.2360    1.7780    0.0000 C   0  0  0  0  0  0  0  0  0  0  0  0
    3.5220    2.1900    0.0000 C   0  0  0  0  0  0  0  0  0  0  0  0
  1 17  1  0  0  0  0
  2  7  2  0  0  0  0
  2 14  1  0  0  0  0
  3 10  1  0  0  0  0
  3 14  2  0  0  0  0
  4 10  1  0  0  0  0
  5 14  1  0  0  0  0
  6  7  1  0  0  0  0
  6  9  1  0  0  0  0
  6 10  2  0  0  0  0
  7  8  1  0  0  0  0
  8 13  1  0  0  0  0
  9 11  2  0  0  0  0
  9 12  1  0  0  0  0
 11 15  1  0  0  0  0
 12 16  2  0  0  0  0
 15 17  2  0  0  0  0
 16 17  1  0  0  0  0
M  END
>  <DATABASE_ID>
DB00205

>  <DATABASE_NAME>
drugbank

>  <SMILES>
Clc1ccc(cc1)-c1c(nc(nc1N)N)CC

>  <INCHI_IDENTIFIER>
InChI=1S/C12H13ClN4/c1-2-9-10(11(14)17-12(15)16-9)7-3-5-8(13)6-4-7/h3-6H,2H2,1H3,(H4,14,15,16,17)

>  <INCHI_KEY>
InChIKey=WKSAUQYGYAYLPV-UHFFFAOYSA-N

>  <JCHEM_ACCEPTOR_COUNT>
4

>  <JCHEM_AVERAGE_POLARIZABILITY>
25.79413

>  <JCHEM_BIOAVAILABILITY>
1

>  <JCHEM_DONOR_COUNT>
2

>  <JCHEM_EXACT_MASS>
248.08287

>  <JCHEM_FORMAL_CHARGE>
0

>  <JCHEM_FORMULA>
C12H13ClN4

>  <JCHEM_GHOSE_FILTER>
1

>  <JCHEM_IUPAC>
5-(4-chlorophenyl)-6-ethylpyrimidine-2,4-diamine

>  <ALOGPS_LOGP>
2.6199999

>  <JCHEM_LOGP>
2.7483032

>  <ALOGPS_LOGS>
-3.1400001

>  <JCHEM_MASS>
248.711

>  <JCHEM_MDDR_LIKE_RULE>
0

>  <JCHEM_NUMBER_OF_RINGS>
2

>  <JCHEM_PHYSIOLOGICAL_CHARGE>
1

>  <JCHEM_PKA_STRONGEST_ACIDIC>
17.222044

>  <JCHEM_PKA_STRONGEST_BASIC>
7.7731833

>  <JCHEM_POLAR_SURFACE_AREA>
77.82

>  <JCHEM_REFRACTIVITY>
71.542

>  <JCHEM_ROTATABLE_BOND_COUNT>
2

>  <JCHEM_RULE_OF_FIVE>
1

>  <ALOGPS_SOLUBILITY>
1.79e-01 g/l

>  <JCHEM_TRADITIONAL_IUPAC>
pyrimethamine

>  <JCHEM_VEBER_RULE>
0

>  <DRUGBANK_ID>
DB00205

>  <DRUG_GROUPS>
approved

>  <GENERIC_NAME>
Pyrimethamine

>  <SYNONYMS>
2,4-Diamino-5-chlorophenyl-6-ethylpyrimidine; CD; Chloridine; Chloridyn; Diaminopyritamin; Ethylpyrimidine; Pirimetamina; Primethamine

>  <BRANDS>
Daraprim

>  <SALTS>
Pyrimethamine Hydrochloride

$$$$
Reserpine
 OpenBabel02121510022D

 47 52  0  0  1  0  0  0  0  0999 V2000
    9.0370   -1.7080    0.0000 O   0  0  0  0  0  0  0  0  0  0  0  0
   10.1920   -0.4250    0.0000 O   0  0  0  0  0  0  0  0  0  0  0  0
    7.5980   -2.1230    0.0000 O   0  0  0  0  0  0  0  0  0  0  0  0
    6.5470   -1.1550    0.0000 O   0  0  0  0  0  0  0  0  0  0  0  0
   10.4830    0.9740    0.0000 O   0  0  0  0  0  0  0  0  0  0  0  0
    2.2050    1.5700    0.0000 O   0  0  0  0  0  0  0  0  0  0  0  0
   12.8720   -1.7140    0.0000 O   0  0  0  0  0  0  0  0  0  0  0  0
   13.4560    1.0840    0.0000 O   0  0  0  0  0  0  0  0  0  0  0  0
   13.9720   -0.4840    0.0000 O   0  0  0  0  0  0  0  0  0  0  0  0
    7.1070    1.7460    0.0000 N   0  0  3  0  0  0  0  0  0  0  0  0
    5.0840    0.8240    0.0000 N   0  0  0  0  0  0  0  0  0  0  0  0
    7.6470    0.1260    0.0000 C   0  0  2  0  0  0  0  0  0  0  0  0
    8.2220    0.7650    0.0000 C   0  0  1  0  0  0  0  0  0  0  0  0
    6.8080    0.3120    0.0000 C   0  0  0  0  0  0  0  0  0  0  0  0
    7.9110   -0.7290    0.0000 C   0  0  1  0  0  0  0  0  0  0  0  0
    6.5550    1.1330    0.0000 C   0  0  2  0  0  0  0  0  0  0  0  0
    7.9500    1.5800    0.0000 C   0  0  0  0  0  0  0  0  0  0  0  0
    9.1010    0.5920    0.0000 C   0  0  0  0  0  0  0  0  0  0  0  0
    8.7850   -0.9220    0.0000 C   0  0  2  0  0  0  0  0  0  0  0  0
    9.3840   -0.2570    0.0000 C   0  0  2  0  0  0  0  0  0  0  0  0
    5.7480    1.3040    0.0000 C   0  0  0  0  0  0  0  0  0  0  0  0
    6.8520    2.5300    0.0000 C   0  0  0  0  0  0  0  0  0  0  0  0
    5.4940    2.0890    0.0000 C   0  0  0  0  0  0  0  0  0  0  0  0
    6.0460    2.7020    0.0000 C   0  0  0  0  0  0  0  0  0  0  0  0
    7.3520   -1.3360    0.0000 C   0  0  0  0  0  0  0  0  0  0  0  0
    4.6730    2.0870    0.0000 C   0  0  0  0  0  0  0  0  0  0  0  0
    4.4210    1.3070    0.0000 C   0  0  0  0  0  0  0  0  0  0  0  0
    9.8430   -1.8820    0.0000 C   0  0  0  0  0  0  0  0  0  0  0  0
    4.1110    2.7300    0.0000 C   0  0  0  0  0  0  0  0  0  0  0  0
   10.7410    0.1900    0.0000 C   0  0  0  0  0  0  0  0  0  0  0  0
    3.5880    1.1160    0.0000 C   0  0  0  0  0  0  0  0  0  0  0  0
    3.2740    2.5580    0.0000 C   0  0  0  0  0  0  0  0  0  0  0  0
    3.0110    1.7450    0.0000 C   0  0  0  0  0  0  0  0  0  0  0  0
    7.0380   -2.7300    0.0000 C   0  0  0  0  0  0  0  0  0  0  0  0
   11.5490    0.0220    0.0000 C   0  0  0  0  0  0  0  0  0  0  0  0
   12.0980    0.6370    0.0000 C   0  0  0  0  0  0  0  0  0  0  0  0
   11.8070   -0.7620    0.0000 C   0  0  0  0  0  0  0  0  0  0  0  0
   12.6140   -0.9300    0.0000 C   0  0  0  0  0  0  0  0  0  0  0  0
   12.9060    0.4680    0.0000 C   0  0  0  0  0  0  0  0  0  0  0  0
    1.6500    2.1800    0.0000 C   0  0  0  0  0  0  0  0  0  0  0  0
   13.1640   -0.3150    0.0000 C   0  0  0  0  0  0  0  0  0  0  0  0
   12.3230   -2.3290    0.0000 C   0  0  0  0  0  0  0  0  0  0  0  0
   13.1980    1.8670    0.0000 C   0  0  0  0  0  0  0  0  0  0  0  0
   14.5210    0.1320    0.0000 C   0  0  0  0  0  0  0  0  0  0  0  0
    7.2000   -0.3590    0.0000 H   0  0  0  0  0  0  0  0  0  0  0  0
    8.6580    1.2610    0.0000 H   0  0  0  0  0  0  0  0  0  0  0  0
    6.1100    0.6460    0.0000 H   0  0  0  0  0  0  0  0  0  0  0  0
  1 28  1  0  0  0  0
  2 30  1  0  0  0  0
  3 25  1  0  0  0  0
  3 34  1  0  0  0  0
  4 25  2  0  0  0  0
  5 30  2  0  0  0  0
  6 33  1  0  0  0  0
  6 40  1  0  0  0  0
  7 38  1  0  0  0  0
  7 42  1  0  0  0  0
  8 39  1  0  0  0  0
  8 43  1  0  0  0  0
  9 41  1  0  0  0  0
  9 44  1  0  0  0  0
 10 16  1  0  0  0  0
 10 17  1  0  0  0  0
 10 22  1  0  0  0  0
 11 21  1  0  0  0  0
 11 27  1  0  0  0  0
 12 13  1  0  0  0  0
 12 14  1  0  0  0  0
 12 15  1  0  0  0  0
 12 45  1  6  0  0  0
 13 17  1  0  0  0  0
 13 18  1  0  0  0  0
 13 46  1  6  0  0  0
 14 16  1  0  0  0  0
 15 19  1  0  0  0  0
 15 25  1  1  0  0  0
 16 21  1  0  0  0  0
 16 47  1  1  0  0  0
 18 20  1  0  0  0  0
 19  1  1  6  0  0  0
 19 20  1  0  0  0  0
 20  2  1  1  0  0  0
 21 23  2  0  0  0  0
 22 24  1  0  0  0  0
 23 24  1  0  0  0  0
 23 26  1  0  0  0  0
 26 27  2  0  0  0  0
 26 29  1  0  0  0  0
 27 31  1  0  0  0  0
 29 32  2  0  0  0  0
 30 35  1  0  0  0  0
 31 33  2  0  0  0  0
 32 33  1  0  0  0  0
 35 36  1  0  0  0  0
 35 37  2  0  0  0  0
 36 39  2  0  0  0  0
 37 38  1  0  0  0  0
 38 41  2  0  0  0  0
 39 41  1  0  0  0  0
M  END
>  <DATABASE_ID>
DB00206

>  <DATABASE_NAME>
drugbank

>  <SMILES>
O(C)c1c(OC)cc(cc1OC)C(O[C@@H]1C[C@H]2[C@H](C[C@H]3N(CCc4c5c([nH]c34)cc(OC)cc5)C2)[C@H](C(OC)=O)[C@H]1OC)=O

>  <INCHI_IDENTIFIER>
InChI=1S/C33H40N2O9/c1-38-19-7-8-20-21-9-10-35-16-18-13-27(44-32(36)17-11-25(39-2)30(41-4)26(12-17)40-3)31(42-5)28(33(37)43-6)22(18)15-24(35)29(21)34-23(20)14-19/h7-8,11-12,14,18,22,24,27-28,31,34H,9-10,13,15-16H2,1-6H3/t18-,22+,24-,27-,28+,31+/m1/s1

>  <INCHI_KEY>
InChIKey=QEVHRUUCFGRFIF-MDEJGZGSSA-N

>  <JCHEM_ACCEPTOR_COUNT>
8

>  <JCHEM_AVERAGE_POLARIZABILITY>
66.050095

>  <JCHEM_BIOAVAILABILITY>
1

>  <JCHEM_DONOR_COUNT>
1

>  <JCHEM_EXACT_MASS>
608.27338

>  <JCHEM_FORMAL_CHARGE>
0

>  <JCHEM_FORMULA>
C33H40N2O9

>  <JCHEM_GHOSE_FILTER>
0

>  <JCHEM_IUPAC>
methyl (1R,15S,17R,18R,19S,20S)-6,18-dimethoxy-17-[(3,4,5-trimethoxyphenyl)carbonyloxy]-3,13-diazapentacyclo[11.8.0.0^{2,10}.0^{4,9}.0^{15,20}]henicosa-2(10),4,6,8-tetraene-19-carboxylate

>  <ALOGPS_LOGP>
4.0500002

>  <JCHEM_LOGP>
3.531496

>  <ALOGPS_LOGS>
-4.73

>  <JCHEM_MASS>
608.67871

>  <JCHEM_MDDR_LIKE_RULE>
1

>  <JCHEM_NUMBER_OF_RINGS>
6

>  <JCHEM_PHYSIOLOGICAL_CHARGE>
1

>  <JCHEM_PKA_STRONGEST_ACIDIC>
16.290113

>  <JCHEM_PKA_STRONGEST_BASIC>
7.5595179

>  <JCHEM_POLAR_SURFACE_AREA>
117.78

>  <JCHEM_REFRACTIVITY>
161.4185

>  <JCHEM_ROTATABLE_BOND_COUNT>
10

>  <JCHEM_RULE_OF_FIVE>
0

>  <ALOGPS_SOLUBILITY>
1.13e-02 g/l

>  <JCHEM_TRADITIONAL_IUPAC>
reserpine

>  <JCHEM_VEBER_RULE>
0

>  <DRUGBANK_ID>
DB00206

>  <DRUG_GROUPS>
approved

>  <GENERIC_NAME>
Reserpine

>  <SYNONYMS>
(−)-reserpine; 3,4,5-trimethoxybenzoyl methyl reserpate

>  <BRANDS>
Apoplon; Hiserpia; Novoreserpine; Reserfia; Serpalan; Serpanray; Serpasil

$$$$
Azithromycin
 OpenBabel02121510022D

 52 54  0  0  1  0  0  0  0  0999 V2000
   -3.2660    2.7280    0.0000 N   0  0  0  0  0  0  0  0  0  0  0  0
   -1.7680    2.7110    0.0000 C   0  0  0  0  0  0  0  0  0  0  0  0
   -3.6780    2.0140    0.0000 C   0  0  1  0  0  0  0  0  0  0  0  0
   -1.3550    1.9960    0.0000 C   0  0  1  0  0  0  0  0  0  0  0  0
   -1.7680    1.2820    0.0000 C   0  0  0  0  0  0  0  0  0  0  0  0
   -1.1840    0.6980    0.0000 C   0  0  2  0  0  0  0  0  0  0  0  0
   -1.1840   -0.1270    0.0000 C   0  0  1  0  0  0  0  0  0  0  0  0
   -1.7680   -0.7100    0.0000 C   0  0  2  0  0  0  0  0  0  0  0  0
   -1.7680   -1.5350    0.0000 C   0  0  1  0  0  0  0  0  0  0  0  0
   -2.4820   -1.9480    0.0000 C   0  0  2  0  0  0  0  0  0  0  0  0
   -3.1970   -1.5350    0.0000 C   0  0  0  0  0  0  0  0  0  0  0  0
   -3.1970   -0.7100    0.0000 O   0  0  0  0  0  0  0  0  0  0  0  0
   -3.9110   -0.2980    0.0000 C   0  0  1  0  0  0  0  0  0  0  0  0
   -3.9110    0.5280    0.0000 C   0  0  2  0  0  0  0  0  0  0  0  0
   -3.3280    1.1110    0.0000 C   0  0  2  0  0  0  0  0  0  0  0  0
   -3.2660    3.5530    0.0000 C   0  0  0  0  0  0  0  0  0  0  0  0
   -4.4750    2.2270    0.0000 C   0  0  0  0  0  0  0  0  0  0  0  0
   -2.5310    0.8970    0.0000 O   0  0  0  0  0  0  0  0  0  0  0  0
   -4.6260    0.9400    0.0000 O   0  0  0  0  0  0  0  0  0  0  0  0
   -2.4820   -2.7720    0.0000 C   0  0  0  0  0  0  0  0  0  0  0  0
   -0.3880    0.9120    0.0000 O   0  0  0  0  0  0  0  0  0  0  0  0
   -0.5580    2.2100    0.0000 C   0  0  0  0  0  0  0  0  0  0  0  0
   -0.4700    0.2860    0.0000 C   0  0  0  0  0  0  0  0  0  0  0  0
   -4.6260    0.1150    0.0000 C   0  0  0  0  0  0  0  0  0  0  0  0
   -4.6260   -0.7100    0.0000 C   0  0  0  0  0  0  0  0  0  0  0  0
   -0.6390   -3.2070    0.0000 O   0  0  0  0  0  0  0  0  0  0  0  0
    0.5610   -0.6850    0.0000 O   0  0  0  0  0  0  0  0  0  0  0  0
   -3.9110   -1.9480    0.0000 O   0  0  0  0  0  0  0  0  0  0  0  0
   -5.4510   -0.7100    0.0000 C   0  0  0  0  0  0  0  0  0  0  0  0
   -0.6390   -4.0320    0.0000 C   0  0  1  0  0  0  0  0  0  0  0  0
    1.7990   -1.4000    0.0000 C   0  0  1  0  0  0  0  0  0  0  0  0
    0.9740   -1.4000    0.0000 C   0  0  1  0  0  0  0  0  0  0  0  0
    0.5610   -2.1140    0.0000 O   0  0  0  0  0  0  0  0  0  0  0  0
    0.9740   -2.8290    0.0000 C   0  0  1  0  0  0  0  0  0  0  0  0
    1.7990   -2.8290    0.0000 C   0  0  0  0  0  0  0  0  0  0  0  0
    2.2110   -2.1140    0.0000 C   0  0  2  0  0  0  0  0  0  0  0  0
    0.1860   -4.0320    0.0000 C   0  0  0  0  0  0  0  0  0  0  0  0
   -1.0520   -4.7460    0.0000 O   0  0  0  0  0  0  0  0  0  0  0  0
   -0.6400   -5.4610    0.0000 C   0  0  2  0  0  0  0  0  0  0  0  0
    0.1860   -5.4610    0.0000 C   0  0  1  0  0  0  0  0  0  0  0  0
    0.5980   -4.7460    0.0000 C   0  0  1  0  0  0  0  0  0  0  0  0
    2.3820   -0.8160    0.0000 O   0  0  0  0  0  0  0  0  0  0  0  0
   -1.2230   -6.0440    0.0000 C   0  0  0  0  0  0  0  0  0  0  0  0
    1.1810   -5.3300    0.0000 C   0  0  0  0  0  0  0  0  0  0  0  0
    0.5610   -3.5430    0.0000 C   0  0  0  0  0  0  0  0  0  0  0  0
    3.0360   -2.1140    0.0000 N   0  0  0  0  0  0  0  0  0  0  0  0
    1.1810   -4.1630    0.0000 O   0  0  0  0  0  0  0  0  0  0  0  0
    0.5980   -6.1750    0.0000 O   0  0  0  0  0  0  0  0  0  0  0  0
    2.0060   -4.1630    0.0000 C   0  0  0  0  0  0  0  0  0  0  0  0
    3.6200   -1.5310    0.0000 C   0  0  0  0  0  0  0  0  0  0  0  0
    3.4490   -2.8290    0.0000 C   0  0  0  0  0  0  0  0  0  0  0  0
   -2.4820   -0.2980    0.0000 C   0  0  0  0  0  0  0  0  0  0  0  0
  1  2  1  0  0  0  0
  1  3  1  0  0  0  0
  1 16  1  0  0  0  0
  2  4  1  0  0  0  0
  3 15  1  0  0  0  0
  3 17  1  1  0  0  0
  4  5  1  0  0  0  0
  4 22  1  6  0  0  0
  5  6  1  0  0  0  0
  6  7  1  0  0  0  0
  6 21  1  1  0  0  0
  6 23  1  0  0  0  0
  7  8  1  0  0  0  0
  7 27  1  6  0  0  0
  8  9  1  0  0  0  0
  8 52  1  6  0  0  0
  9 10  1  0  0  0  0
  9 26  1  6  0  0  0
 10 11  1  0  0  0  0
 10 20  1  1  0  0  0
 11 12  1  0  0  0  0
 11 28  2  0  0  0  0
 12 13  1  0  0  0  0
 13 14  1  0  0  0  0
 13 25  1  6  0  0  0
 14 15  1  0  0  0  0
 14 19  1  1  0  0  0
 14 24  1  0  0  0  0
 15 18  1  1  0  0  0
 25 29  1  0  0  0  0
 30 26  1  1  0  0  0
 30 37  1  0  0  0  0
 30 38  1  0  0  0  0
 31 32  1  0  0  0  0
 31 36  1  0  0  0  0
 31 42  1  6  0  0  0
 32 27  1  1  0  0  0
 32 33  1  0  0  0  0
 33 34  1  0  0  0  0
 34 35  1  0  0  0  0
 34 45  1  1  0  0  0
 35 36  1  0  0  0  0
 36 46  1  1  0  0  0
 37 41  1  0  0  0  0
 38 39  1  0  0  0  0
 39 40  1  0  0  0  0
 39 43  1  6  0  0  0
 40 41  1  0  0  0  0
 40 48  1  1  0  0  0
 41 44  1  6  0  0  0
 41 47  1  0  0  0  0
 46 50  1  0  0  0  0
 46 51  1  0  0  0  0
 47 49  1  0  0  0  0
M  END
>  <DATABASE_ID>
DB00207

>  <DATABASE_NAME>
drugbank

>  <SMILES>
O1[C@H](CC)[C@](O)(C)[C@H](O)[C@H](N(C[C@@H](C[C@](O)(C)[C@H](O[C@@H]2O[C@@H](C[C@H](N(C)C)[C@H]2O)C)[C@@H](C)[C@H](O[C@@H]2O[C@@H](C)[C@H](O)[C@](OC)(C2)C)[C@@H](C)C1=O)C)C)C

>  <INCHI_IDENTIFIER>
InChI=1S/C38H72N2O12/c1-15-27-38(10,46)31(42)24(6)40(13)19-20(2)17-36(8,45)33(52-35-29(41)26(39(11)12)16-21(3)48-35)22(4)30(23(5)34(44)50-27)51-28-18-37(9,47-14)32(43)25(7)49-28/h20-33,35,41-43,45-46H,15-19H2,1-14H3/t20-,21-,22+,23-,24-,25+,26+,27-,28+,29-,30+,31-,32+,33-,35+,36-,37-,38-/m1/s1

>  <INCHI_KEY>
InChIKey=MQTOSJVFKKJCRP-BICOPXKESA-N

>  <JCHEM_ACCEPTOR_COUNT>
13

>  <JCHEM_AVERAGE_POLARIZABILITY>
83.10923

>  <JCHEM_BIOAVAILABILITY>
0

>  <JCHEM_DONOR_COUNT>
5

>  <JCHEM_EXACT_MASS>
748.50854

>  <JCHEM_FORMAL_CHARGE>
0

>  <JCHEM_FORMULA>
C38H72N2O12

>  <JCHEM_GHOSE_FILTER>
0

>  <JCHEM_IUPAC>
(2R,3S,4R,5R,8R,10R,11R,12S,13S,14R)-11-{[(2S,3R,4S,6R)-4-(dimethylamino)-3-hydroxy-6-methyloxan-2-yl]oxy}-2-ethyl-3,4,10-trihydroxy-13-{[(2R,4R,5S,6S)-5-hydroxy-4-methoxy-4,6-dimethyloxan-2-yl]oxy}-3,5,6,8,10,12,14-heptamethyl-1-oxa-6-azacyclopentadecan-15-one

>  <ALOGPS_LOGP>
3.03

>  <JCHEM_LOGP>
2.4447815

>  <ALOGPS_LOGS>
-3.1600001

>  <JCHEM_MASS>
748.9845

>  <JCHEM_MDDR_LIKE_RULE>
1

>  <JCHEM_NUMBER_OF_RINGS>
3

>  <JCHEM_PHYSIOLOGICAL_CHARGE>
2

>  <JCHEM_PKA>
12.898154

>  <JCHEM_PKA_STRONGEST_ACIDIC>
12.428324

>  <JCHEM_PKA_STRONGEST_BASIC>
9.569665

>  <JCHEM_POLAR_SURFACE_AREA>
180.08

>  <JCHEM_REFRACTIVITY>
194.1082

>  <JCHEM_ROTATABLE_BOND_COUNT>
7

>  <JCHEM_RULE_OF_FIVE>
0

>  <ALOGPS_SOLUBILITY>
5.14e-01 g/l

>  <JCHEM_TRADITIONAL_IUPAC>
azithromycin

>  <JCHEM_VEBER_RULE>
0

>  <DRUGBANK_ID>
DB00207

>  <DRUG_GROUPS>
approved

>  <GENERIC_NAME>
Azithromycin

>  <SYNONYMS>
Azithromycine; Azithromycinum; Azitromicina

>  <BRANDS>
AzaSite; Azenil; Azibiot; Azin; Azithrocin; Azitromax; Aztrin; Hemomycin; Misultina; Penalox; Sumamed; Vinzam; Zifin; Zithromax; Zitrocin; Zitrotek; Zmax

>  <SALTS>
Azithromycin dihydrate

$$$$
Ticlopidine
 OpenBabel02121510022D

 17 19  0  0  1  0  0  0  0  0999 V2000
    2.3640    1.2380    0.0000 Cl  0  0  0  0  0  0  0  0  0  0  0  0
    6.7180   -1.0760    0.0000 S   0  0  0  0  0  0  0  0  0  0  0  0
    4.5080    0.0000    0.0000 N   0  0  0  0  0  0  0  0  0  0  0  0
    4.5080   -0.8250    0.0000 C   0  0  0  0  0  0  0  0  0  0  0  0
    5.2220    0.4120    0.0000 C   0  0  0  0  0  0  0  0  0  0  0  0
    5.2220   -1.2380    0.0000 C   0  0  0  0  0  0  0  0  0  0  0  0
    5.9370    0.0000    0.0000 C   0  0  0  0  0  0  0  0  0  0  0  0
    5.9370   -0.8250    0.0000 C   0  0  0  0  0  0  0  0  0  0  0  0
    3.7940    0.4120    0.0000 C   0  0  0  0  0  0  0  0  0  0  0  0
    3.0790    0.0000    0.0000 C   0  0  0  0  0  0  0  0  0  0  0  0
    6.7180    0.2510    0.0000 C   0  0  0  0  0  0  0  0  0  0  0  0
    7.1990   -0.4120    0.0000 C   0  0  0  0  0  0  0  0  0  0  0  0
    2.3640    0.4120    0.0000 C   0  0  0  0  0  0  0  0  0  0  0  0
    3.0790   -0.8250    0.0000 C   0  0  0  0  0  0  0  0  0  0  0  0
    1.6500    0.0000    0.0000 C   0  0  0  0  0  0  0  0  0  0  0  0
    2.3640   -1.2380    0.0000 C   0  0  0  0  0  0  0  0  0  0  0  0
    1.6500   -0.8250    0.0000 C   0  0  0  0  0  0  0  0  0  0  0  0
  1 13  1  0  0  0  0
  2  8  1  0  0  0  0
  2 12  1  0  0  0  0
  3  4  1  0  0  0  0
  3  5  1  0  0  0  0
  3  9  1  0  0  0  0
  4  6  1  0  0  0  0
  5  7  1  0  0  0  0
  6  8  1  0  0  0  0
  7  8  2  0  0  0  0
  7 11  1  0  0  0  0
  9 10  1  0  0  0  0
 10 13  2  0  0  0  0
 10 14  1  0  0  0  0
 11 12  2  0  0  0  0
 13 15  1  0  0  0  0
 14 16  2  0  0  0  0
 15 17  2  0  0  0  0
 16 17  1  0  0  0  0
M  END
>  <DATABASE_ID>
DB00208

>  <DATABASE_NAME>
drugbank

>  <SMILES>
Clc1ccccc1CN1CCc2sccc2C1

>  <INCHI_IDENTIFIER>
InChI=1S/C14H14ClNS/c15-13-4-2-1-3-11(13)9-16-7-5-14-12(10-16)6-8-17-14/h1-4,6,8H,5,7,9-10H2

>  <INCHI_KEY>
InChIKey=PHWBOXQYWZNQIN-UHFFFAOYSA-N

>  <JCHEM_ACCEPTOR_COUNT>
1

>  <JCHEM_AVERAGE_POLARIZABILITY>
27.988708

>  <JCHEM_BIOAVAILABILITY>
1

>  <JCHEM_DONOR_COUNT>
0

>  <JCHEM_EXACT_MASS>
263.05356

>  <JCHEM_FORMAL_CHARGE>
0

>  <JCHEM_FORMULA>
C14H14ClNS

>  <JCHEM_GHOSE_FILTER>
1

>  <JCHEM_IUPAC>
5-[(2-chlorophenyl)methyl]-4H,5H,6H,7H-thieno[3,2-c]pyridine

>  <ALOGPS_LOGP>
4.25

>  <JCHEM_LOGP>
4.1959305

>  <ALOGPS_LOGS>
-4.0799999

>  <JCHEM_MASS>
263.78601

>  <JCHEM_MDDR_LIKE_RULE>
0

>  <JCHEM_NUMBER_OF_RINGS>
3

>  <JCHEM_PHYSIOLOGICAL_CHARGE>
1

>  <JCHEM_PKA_STRONGEST_BASIC>
7.3058033

>  <JCHEM_POLAR_SURFACE_AREA>
3.24

>  <JCHEM_REFRACTIVITY>
74.328003

>  <JCHEM_ROTATABLE_BOND_COUNT>
2

>  <JCHEM_RULE_OF_FIVE>
1

>  <ALOGPS_SOLUBILITY>
2.19e-02 g/l

>  <JCHEM_TRADITIONAL_IUPAC>
ticlopidine

>  <JCHEM_VEBER_RULE>
1

>  <DRUGBANK_ID>
DB00208

>  <DRUG_GROUPS>
approved

>  <GENERIC_NAME>
Ticlopidine

>  <BRANDS>
Ticlid

>  <SALTS>
Ticlopidine Hydrochloride

$$$$
Trospium
 OpenBabel02121510022D

 29 33  0  0  1  0  0  0  0  0999 V2000
    7.3400    0.4680    0.0000 O   0  0  0  0  0  0  0  0  0  0  0  0
    6.9700   -0.9120    0.0000 O   0  0  0  0  0  0  0  0  0  0  0  0
    8.5640    0.2540    0.0000 O   0  0  0  0  0  0  0  0  0  0  0  0
    2.9560    0.6110    0.0000 N   0  3  0  0  0  0  0  0  0  0  0  0
    4.7090    1.8210    0.0000 C   0  0  3  0  0  0  0  0  0  0  0  0
    4.4950    1.0240    0.0000 C   0  0  3  0  0  0  0  0  0  0  0  0
    4.4030    2.9330    0.0000 C   0  0  0  0  0  0  0  0  0  0  0  0
    3.6890    2.5210    0.0000 C   0  0  0  0  0  0  0  0  0  0  0  0
    2.8700   -0.2090    0.0000 C   0  0  0  0  0  0  0  0  0  0  0  0
    2.2020    0.9470    0.0000 C   0  0  0  0  0  0  0  0  0  0  0  0
    6.2470    1.4510    0.0000 C   0  0  0  0  0  0  0  0  0  0  0  0
    5.9020    0.1620    0.0000 C   0  0  0  0  0  0  0  0  0  0  0  0
    6.5430    0.6810    0.0000 C   0  0  3  0  0  0  0  0  0  0  0  0
    1.6500    0.3340    0.0000 C   0  0  0  0  0  0  0  0  0  0  0  0
    2.0620   -0.3810    0.0000 C   0  0  0  0  0  0  0  0  0  0  0  0
    7.5530   -0.3290    0.0000 C   0  0  0  0  0  0  0  0  0  0  0  0
    8.3500   -0.5430    0.0000 C   0  0  0  0  0  0  0  0  0  0  0  0
    9.1470   -0.7560    0.0000 C   0  0  0  0  0  0  0  0  0  0  0  0
    8.1370   -1.3400    0.0000 C   0  0  0  0  0  0  0  0  0  0  0  0
    9.7300   -0.1730    0.0000 C   0  0  0  0  0  0  0  0  0  0  0  0
    8.7200   -1.9230    0.0000 C   0  0  0  0  0  0  0  0  0  0  0  0
    9.3610   -1.5530    0.0000 C   0  0  0  0  0  0  0  0  0  0  0  0
    7.3400   -1.5530    0.0000 C   0  0  0  0  0  0  0  0  0  0  0  0
   10.5270   -0.3860    0.0000 C   0  0  0  0  0  0  0  0  0  0  0  0
    8.5060   -2.7200    0.0000 C   0  0  0  0  0  0  0  0  0  0  0  0
   10.1580   -1.7670    0.0000 C   0  0  0  0  0  0  0  0  0  0  0  0
    7.1260   -2.3500    0.0000 C   0  0  0  0  0  0  0  0  0  0  0  0
   10.7410   -1.1830    0.0000 C   0  0  0  0  0  0  0  0  0  0  0  0
    7.7100   -2.9330    0.0000 C   0  0  0  0  0  0  0  0  0  0  0  0
  1 13  1  0  0  0  0
  1 16  1  0  0  0  0
  2 16  2  0  0  0  0
  3 17  1  0  0  0  0
  4  5  1  0  0  0  0
  4  6  1  0  0  0  0
  4  9  1  0  0  0  0
  4 10  1  0  0  0  0
  5  7  1  0  0  0  0
  5 11  1  0  0  0  0
  6  8  1  0  0  0  0
  6 12  1  0  0  0  0
  7  8  1  0  0  0  0
  9 15  1  0  0  0  0
 10 14  1  0  0  0  0
 11 13  1  0  0  0  0
 12 13  1  0  0  0  0
 14 15  1  0  0  0  0
 16 17  1  0  0  0  0
 17 18  1  0  0  0  0
 17 19  1  0  0  0  0
 18 20  2  0  0  0  0
 18 22  1  0  0  0  0
 19 21  2  0  0  0  0
 19 23  1  0  0  0  0
 20 24  1  0  0  0  0
 21 25  1  0  0  0  0
 22 26  2  0  0  0  0
 23 27  2  0  0  0  0
 24 28  2  0  0  0  0
 25 29  2  0  0  0  0
 26 28  1  0  0  0  0
 27 29  1  0  0  0  0
M  CHG  1   4   1
M  END
>  <DATABASE_ID>
DB00209

>  <DATABASE_NAME>
drugbank

>  <SMILES>
O(C(=O)C(O)(c1ccccc1)c1ccccc1)C1CC2[N+]3(C(C1)CC2)CCCC3

>  <INCHI_IDENTIFIER>
InChI=1S/C25H30NO3/c27-24(25(28,19-9-3-1-4-10-19)20-11-5-2-6-12-20)29-23-17-21-13-14-22(18-23)26(21)15-7-8-16-26/h1-6,9-12,21-23,28H,7-8,13-18H2/q+1

>  <INCHI_KEY>
InChIKey=OYYDSUSKLWTMMQ-UHFFFAOYSA-N

>  <JCHEM_ACCEPTOR_COUNT>
2

>  <JCHEM_AVERAGE_POLARIZABILITY>
43.183872

>  <JCHEM_BIOAVAILABILITY>
1

>  <JCHEM_DONOR_COUNT>
1

>  <JCHEM_EXACT_MASS>
392.22256

>  <JCHEM_FORMAL_CHARGE>
1

>  <JCHEM_FORMULA>
C25H30NO3

>  <JCHEM_GHOSE_FILTER>
0

>  <JCHEM_IUPAC>
3-[(2-hydroxy-2,2-diphenylacetyl)oxy]-8$l^{5}-azaspiro[bicyclo[3.2.1]octane-8,1'-pyrrolidin]-8-ylium

>  <ALOGPS_LOGP>
2.8599999

>  <JCHEM_LOGP>
-0.50096029

>  <ALOGPS_LOGS>
-6.8099999

>  <JCHEM_MASS>
392.51059

>  <JCHEM_MDDR_LIKE_RULE>
0

>  <JCHEM_NUMBER_OF_RINGS>
5

>  <JCHEM_PHYSIOLOGICAL_CHARGE>
1

>  <JCHEM_PKA_STRONGEST_ACIDIC>
11.049374

>  <JCHEM_PKA_STRONGEST_BASIC>
-4.526804

>  <JCHEM_POLAR_SURFACE_AREA>
46.529999

>  <JCHEM_REFRACTIVITY>
124.0383

>  <JCHEM_ROTATABLE_BOND_COUNT>
5

>  <JCHEM_RULE_OF_FIVE>
1

>  <ALOGPS_SOLUBILITY>
6.68e-05 g/l

>  <JCHEM_TRADITIONAL_IUPAC>
3-[(2-hydroxy-2,2-diphenylacetyl)oxy]-8$l^{5}-azaspiro[bicyclo[3.2.1]octane-8,1'-pyrrolidin]-8-ylium

>  <JCHEM_VEBER_RULE>
0

>  <DRUGBANK_ID>
DB00209

>  <DRUG_GROUPS>
approved

>  <GENERIC_NAME>
Trospium

>  <BRANDS>
Flotros; Regurin; Sanctura; Spasmex; Spasmolyt; Spasmoplex; Tropez OD; Trosec

>  <SALTS>
Trospium chloride

$$$$
Midodrine
 OpenBabel02121510022D

 18 18  0  0  1  0  0  0  0  0999 V2000
    3.0790    0.3630    0.0000 O   0  0  0  0  0  0  0  0  0  0  0  0
    2.3640   -0.8740    0.0000 O   0  0  0  0  0  0  0  0  0  0  0  0
    5.2220   -2.5250    0.0000 O   0  0  0  0  0  0  0  0  0  0  0  0
    5.9370    1.1880    0.0000 O   0  0  0  0  0  0  0  0  0  0  0  0
    4.5080    1.1880    0.0000 N   0  0  0  0  0  0  0  0  0  0  0  0
    5.9370    2.8380    0.0000 N   0  0  0  0  0  0  0  0  0  0  0  0
    3.7940   -0.0500    0.0000 C   0  0  3  0  0  0  0  0  0  0  0  0
    3.7940   -0.8740    0.0000 C   0  0  0  0  0  0  0  0  0  0  0  0
    4.5080    0.3630    0.0000 C   0  0  0  0  0  0  0  0  0  0  0  0
    3.0790   -1.2870    0.0000 C   0  0  0  0  0  0  0  0  0  0  0  0
    4.5080   -1.2870    0.0000 C   0  0  0  0  0  0  0  0  0  0  0  0
    4.5080   -2.1120    0.0000 C   0  0  0  0  0  0  0  0  0  0  0  0
    3.0790   -2.1120    0.0000 C   0  0  0  0  0  0  0  0  0  0  0  0
    3.7940   -2.5250    0.0000 C   0  0  0  0  0  0  0  0  0  0  0  0
    5.2220    1.6000    0.0000 C   0  0  0  0  0  0  0  0  0  0  0  0
    5.2220    2.4260    0.0000 C   0  0  0  0  0  0  0  0  0  0  0  0
    1.6500   -1.2870    0.0000 C   0  0  0  0  0  0  0  0  0  0  0  0
    5.2220   -3.3500    0.0000 C   0  0  0  0  0  0  0  0  0  0  0  0
  1  7  1  0  0  0  0
  2 10  1  0  0  0  0
  2 17  1  0  0  0  0
  3 12  1  0  0  0  0
  3 18  1  0  0  0  0
  4 15  2  0  0  0  0
  5  9  1  0  0  0  0
  5 15  1  0  0  0  0
  6 16  1  0  0  0  0
  7  8  1  0  0  0  0
  7  9  1  0  0  0  0
  8 10  1  0  0  0  0
  8 11  2  0  0  0  0
 10 13  2  0  0  0  0
 11 12  1  0  0  0  0
 12 14  2  0  0  0  0
 13 14  1  0  0  0  0
 15 16  1  0  0  0  0
M  END
>  <DATABASE_ID>
DB00211

>  <DATABASE_NAME>
drugbank

>  <SMILES>
O(C)c1ccc(OC)cc1C(O)CNC(=O)CN

>  <INCHI_IDENTIFIER>
InChI=1S/C12H18N2O4/c1-17-8-3-4-11(18-2)9(5-8)10(15)7-14-12(16)6-13/h3-5,10,15H,6-7,13H2,1-2H3,(H,14,16)

>  <INCHI_KEY>
InChIKey=PTKSEFOSCHHMPD-UHFFFAOYSA-N

>  <JCHEM_ACCEPTOR_COUNT>
5

>  <JCHEM_AVERAGE_POLARIZABILITY>
26.649609

>  <JCHEM_BIOAVAILABILITY>
1

>  <JCHEM_DONOR_COUNT>
3

>  <JCHEM_EXACT_MASS>
254.12666

>  <JCHEM_FORMAL_CHARGE>
0

>  <JCHEM_FORMULA>
C12H18N2O4

>  <JCHEM_GHOSE_FILTER>
0

>  <JCHEM_IUPAC>
2-amino-N-[2-(2,5-dimethoxyphenyl)-2-hydroxyethyl]acetamide

>  <ALOGPS_LOGP>
-0.49000001

>  <JCHEM_LOGP>
-0.95194644

>  <ALOGPS_LOGS>
-1.76

>  <JCHEM_MASS>
254.2823

>  <JCHEM_MDDR_LIKE_RULE>
0

>  <JCHEM_NUMBER_OF_RINGS>
1

>  <JCHEM_PHYSIOLOGICAL_CHARGE>
1

>  <JCHEM_PKA>
15.257032

>  <JCHEM_PKA_STRONGEST_ACIDIC>
13.765054

>  <JCHEM_PKA_STRONGEST_BASIC>
8.1393137

>  <JCHEM_POLAR_SURFACE_AREA>
93.809998

>  <JCHEM_REFRACTIVITY>
66.223801

>  <JCHEM_ROTATABLE_BOND_COUNT>
6

>  <JCHEM_RULE_OF_FIVE>
1

>  <ALOGPS_SOLUBILITY>
4.45e+00 g/l

>  <JCHEM_TRADITIONAL_IUPAC>
midodrine

>  <JCHEM_VEBER_RULE>
0

>  <DRUGBANK_ID>
DB00211

>  <DRUG_GROUPS>
approved

>  <GENERIC_NAME>
Midodrine

>  <SYNONYMS>
Midodrin; Midodrina; Midodrinum

>  <BRANDS>
ProAmatine

>  <SALTS>
Midodrine Hydrochloride

$$$$
Pantoprazole
 OpenBabel02121510022D

 26 28  0  0  1  0  0  0  0  0999 V2000
    7.3100    0.0000    0.0000 S   0  0  3  0  0  0  0  0  0  0  0  0
    2.3640   -0.4120    0.0000 F   0  0  0  0  0  0  0  0  0  0  0  0
    1.6500    0.8250    0.0000 F   0  0  0  0  0  0  0  0  0  0  0  0
    8.5470    0.7140    0.0000 O   0  0  0  0  0  0  0  0  0  0  0  0
    3.0790    0.8250    0.0000 O   0  0  0  0  0  0  0  0  0  0  0  0
    7.7220    0.7140    0.0000 O   0  0  0  0  0  0  0  0  0  0  0  0
   10.1970    0.7140    0.0000 O   0  0  0  0  0  0  0  0  0  0  0  0
    6.0030    0.6640    0.0000 N   0  0  0  0  0  0  0  0  0  0  0  0
    6.0030   -0.6640    0.0000 N   0  0  0  0  0  0  0  0  0  0  0  0
    8.9600   -1.4290    0.0000 N   0  0  0  0  0  0  0  0  0  0  0  0
    5.2220    0.4120    0.0000 C   0  0  0  0  0  0  0  0  0  0  0  0
    6.4850    0.0000    0.0000 C   0  0  0  0  0  0  0  0  0  0  0  0
    5.2220   -0.4120    0.0000 C   0  0  0  0  0  0  0  0  0  0  0  0
    7.7220   -0.7140    0.0000 C   0  0  0  0  0  0  0  0  0  0  0  0
    8.5470   -0.7140    0.0000 C   0  0  0  0  0  0  0  0  0  0  0  0
    4.5080    0.8250    0.0000 C   0  0  0  0  0  0  0  0  0  0  0  0
    4.5080   -0.8250    0.0000 C   0  0  0  0  0  0  0  0  0  0  0  0
    8.9600    0.0000    0.0000 C   0  0  0  0  0  0  0  0  0  0  0  0
    3.7940    0.4120    0.0000 C   0  0  0  0  0  0  0  0  0  0  0  0
    3.7940   -0.4120    0.0000 C   0  0  0  0  0  0  0  0  0  0  0  0
    9.7850    0.0000    0.0000 C   0  0  0  0  0  0  0  0  0  0  0  0
   10.1970   -0.7140    0.0000 C   0  0  0  0  0  0  0  0  0  0  0  0
    9.7850   -1.4290    0.0000 C   0  0  0  0  0  0  0  0  0  0  0  0
    8.9600    1.4290    0.0000 C   0  0  0  0  0  0  0  0  0  0  0  0
    2.3640    0.4120    0.0000 C   0  0  0  0  0  0  0  0  0  0  0  0
   11.0220    0.7140    0.0000 C   0  0  0  0  0  0  0  0  0  0  0  0
  1  6  2  0  0  0  0
  1 12  1  0  0  0  0
  1 14  1  0  0  0  0
  2 25  1  0  0  0  0
  3 25  1  0  0  0  0
  4 18  1  0  0  0  0
  4 24  1  0  0  0  0
  5 19  1  0  0  0  0
  5 25  1  0  0  0  0
  7 21  1  0  0  0  0
  7 26  1  0  0  0  0
  8 11  1  0  0  0  0
  8 12  1  0  0  0  0
  9 12  2  0  0  0  0
  9 13  1  0  0  0  0
 10 15  1  0  0  0  0
 10 23  2  0  0  0  0
 11 13  2  0  0  0  0
 11 16  1  0  0  0  0
 13 17  1  0  0  0  0
 14 15  1  0  0  0  0
 15 18  2  0  0  0  0
 16 19  2  0  0  0  0
 17 20  2  0  0  0  0
 18 21  1  0  0  0  0
 19 20  1  0  0  0  0
 21 22  2  0  0  0  0
 22 23  1  0  0  0  0
M  END
>  <DATABASE_ID>
DB00213

>  <DATABASE_NAME>
drugbank

>  <SMILES>
S(=O)(Cc1nccc(OC)c1OC)c1[nH]c2cc(OC(F)F)ccc2n1

>  <INCHI_IDENTIFIER>
InChI=1S/C16H15F2N3O4S/c1-23-13-5-6-19-12(14(13)24-2)8-26(22)16-20-10-4-3-9(25-15(17)18)7-11(10)21-16/h3-7,15H,8H2,1-2H3,(H,20,21)

>  <INCHI_KEY>
InChIKey=IQPSEEYGBUAQFF-UHFFFAOYSA-N

>  <JCHEM_ACCEPTOR_COUNT>
6

>  <JCHEM_AVERAGE_POLARIZABILITY>
35.168446

>  <JCHEM_BIOAVAILABILITY>
1

>  <JCHEM_DONOR_COUNT>
1

>  <JCHEM_EXACT_MASS>
383.07513

>  <JCHEM_FORMAL_CHARGE>
0

>  <JCHEM_FORMULA>
C16H15F2N3O4S

>  <JCHEM_GHOSE_FILTER>
1

>  <JCHEM_IUPAC>
6-(difluoromethoxy)-2-{[(3,4-dimethoxypyridin-2-yl)methane]sulfinyl}-1H-1,3-benzodiazole

>  <ALOGPS_LOGP>
2.1099999

>  <JCHEM_LOGP>
2.1757534

>  <ALOGPS_LOGS>
-2.8900001

>  <JCHEM_MASS>
383.37

>  <JCHEM_MDDR_LIKE_RULE>
1

>  <JCHEM_NUMBER_OF_RINGS>
3

>  <JCHEM_PHYSIOLOGICAL_CHARGE>
0

>  <JCHEM_PKA>
15.757374

>  <JCHEM_PKA_STRONGEST_ACIDIC>
9.1522532

>  <JCHEM_PKA_STRONGEST_BASIC>
3.5544519

>  <JCHEM_POLAR_SURFACE_AREA>
86.330002

>  <JCHEM_REFRACTIVITY>
90.052002

>  <JCHEM_ROTATABLE_BOND_COUNT>
7

>  <JCHEM_RULE_OF_FIVE>
1

>  <ALOGPS_SOLUBILITY>
4.95e-01 g/l

>  <JCHEM_TRADITIONAL_IUPAC>
5-(difluoromethoxy)-2-[(3,4-dimethoxypyridin-2-yl)methanesulfinyl]-3H-1,3-benzodiazole

>  <JCHEM_VEBER_RULE>
0

>  <DRUGBANK_ID>
DB00213

>  <DRUG_GROUPS>
approved

>  <GENERIC_NAME>
Pantoprazole

>  <SYNONYMS>
Pantoprazol; Pantoprazolum

>  <BRANDS>
Pantoloc; Pantozol; Protonix; Tecta

>  <SALTS>
Pantoprazole Magnesium; Pantoprazole Sodium

$$$$
Torasemide
 OpenBabel02121510022D

 24 25  0  0  0  0  0  0  0  0999 V2000
    5.9360   -0.4120    0.0000 S   0  0  0  0  0  0  0  0  0  0  0  0
    5.1110   -0.4120    0.0000 O   0  0  0  0  0  0  0  0  0  0  0  0
    6.7610   -0.4120    0.0000 O   0  0  0  0  0  0  0  0  0  0  0  0
    7.3650    0.4120    0.0000 O   0  0  0  0  0  0  0  0  0  0  0  0
    6.6510    1.6500    0.0000 N   0  0  0  0  0  0  0  0  0  0  0  0
    4.5080   -1.2370    0.0000 N   0  0  0  0  0  0  0  0  0  0  0  0
    5.9360    0.4120    0.0000 N   0  0  0  0  0  0  0  0  0  0  0  0
    6.6510   -2.4750    0.0000 N   0  0  0  0  0  0  0  0  0  0  0  0
    7.3650    2.0620    0.0000 C   0  0  0  0  0  0  0  0  0  0  0  0
    5.9360   -1.2370    0.0000 C   0  0  0  0  0  0  0  0  0  0  0  0
    5.2220   -1.6500    0.0000 C   0  0  0  0  0  0  0  0  0  0  0  0
    3.7930   -1.6500    0.0000 C   0  0  0  0  0  0  0  0  0  0  0  0
    7.3650    2.8870    0.0000 C   0  0  0  0  0  0  0  0  0  0  0  0
    8.0790    1.6500    0.0000 C   0  0  0  0  0  0  0  0  0  0  0  0
    6.6510    0.8250    0.0000 C   0  0  0  0  0  0  0  0  0  0  0  0
    6.6510   -1.6500    0.0000 C   0  0  0  0  0  0  0  0  0  0  0  0
    5.2220   -2.4750    0.0000 C   0  0  0  0  0  0  0  0  0  0  0  0
    3.0790   -1.2370    0.0000 C   0  0  0  0  0  0  0  0  0  0  0  0
    2.3640   -1.6500    0.0000 C   0  0  0  0  0  0  0  0  0  0  0  0
    3.7930   -2.4750    0.0000 C   0  0  0  0  0  0  0  0  0  0  0  0
    5.9360   -2.8870    0.0000 C   0  0  0  0  0  0  0  0  0  0  0  0
    2.3640   -2.4750    0.0000 C   0  0  0  0  0  0  0  0  0  0  0  0
    3.0790   -2.8870    0.0000 C   0  0  0  0  0  0  0  0  0  0  0  0
    1.6500   -1.2370    0.0000 C   0  0  0  0  0  0  0  0  0  0  0  0
  1  2  2  0  0  0  0
  1  3  2  0  0  0  0
  1  7  1  0  0  0  0
  1 10  1  0  0  0  0
  4 15  2  0  0  0  0
  5  9  1  0  0  0  0
  5 15  1  0  0  0  0
  6 11  1  0  0  0  0
  6 12  1  0  0  0  0
  7 15  1  0  0  0  0
  8 16  2  0  0  0  0
  8 21  1  0  0  0  0
  9 13  1  0  0  0  0
  9 14  1  0  0  0  0
 10 11  2  0  0  0  0
 10 16  1  0  0  0  0
 11 17  1  0  0  0  0
 12 18  2  0  0  0  0
 12 20  1  0  0  0  0
 17 21  2  0  0  0  0
 18 19  1  0  0  0  0
 19 22  2  0  0  0  0
 19 24  1  0  0  0  0
 20 23  2  0  0  0  0
 22 23  1  0  0  0  0
M  END
>  <DATABASE_ID>
DB00214

>  <DATABASE_NAME>
drugbank

>  <SMILES>
S(=O)(=O)(NC(=O)NC(C)C)c1cnccc1Nc1cc(ccc1)C

>  <INCHI_IDENTIFIER>
InChI=1S/C16H20N4O3S/c1-11(2)18-16(21)20-24(22,23)15-10-17-8-7-14(15)19-13-6-4-5-12(3)9-13/h4-11H,1-3H3,(H,17,19)(H2,18,20,21)

>  <INCHI_KEY>
InChIKey=NGBFQHCMQULJNZ-UHFFFAOYSA-N

>  <JCHEM_ACCEPTOR_COUNT>
5

>  <JCHEM_AVERAGE_POLARIZABILITY>
36.151745

>  <JCHEM_BIOAVAILABILITY>
1

>  <JCHEM_DONOR_COUNT>
3

>  <JCHEM_EXACT_MASS>
348.12561

>  <JCHEM_FORMAL_CHARGE>
0

>  <JCHEM_FORMULA>
C16H20N4O3S

>  <JCHEM_GHOSE_FILTER>
1

>  <JCHEM_IUPAC>
1-{4-[(3-methylphenyl)amino]pyridine-3-sulfonyl}-3-(propan-2-yl)urea

>  <ALOGPS_LOGP>
1.76

>  <JCHEM_LOGP>
1.8639036

>  <ALOGPS_LOGS>
-3.77

>  <JCHEM_MASS>
348.42001

>  <JCHEM_MDDR_LIKE_RULE>
0

>  <JCHEM_NUMBER_OF_RINGS>
2

>  <JCHEM_PHYSIOLOGICAL_CHARGE>
-1

>  <JCHEM_PKA>
16.738516

>  <JCHEM_PKA_STRONGEST_ACIDIC>
5.9225373

>  <JCHEM_PKA_STRONGEST_BASIC>
4.197824

>  <JCHEM_POLAR_SURFACE_AREA>
100.19

>  <JCHEM_REFRACTIVITY>
91.893097

>  <JCHEM_ROTATABLE_BOND_COUNT>
4

>  <JCHEM_RULE_OF_FIVE>
1

>  <ALOGPS_SOLUBILITY>
5.96e-02 g/l

>  <JCHEM_TRADITIONAL_IUPAC>
torasemide

>  <JCHEM_VEBER_RULE>
0

>  <DRUGBANK_ID>
DB00214

>  <DRUG_GROUPS>
approved

>  <GENERIC_NAME>
Torasemide

>  <SYNONYMS>
Torasemida; Torasemidum; Torsemide

>  <BRANDS>
Demadex; Diuver; Examide; Luprac

$$$$
Citalopram
 OpenBabel02121510022D

 24 26  0  0  1  0  0  0  0  0999 V2000
    7.9620    1.5350    0.0000 F   0  0  0  0  0  0  0  0  0  0  0  0
    5.7700   -1.0640    0.0000 O   0  0  0  0  0  0  0  0  0  0  0  0
    3.1680    1.5160    0.0000 N   0  0  0  0  0  0  0  0  0  0  0  0
    1.6500   -2.3010    0.0000 N   0  0  0  0  0  0  0  0  0  0  0  0
    5.2890   -0.4000    0.0000 C   0  0  3  0  0  0  0  0  0  0  0  0
    5.0350    0.3850    0.0000 C   0  0  0  0  0  0  0  0  0  0  0  0
    4.5080   -0.6510    0.0000 C   0  0  0  0  0  0  0  0  0  0  0  0
    4.5080   -1.4760    0.0000 C   0  0  0  0  0  0  0  0  0  0  0  0
    4.2280    0.5580    0.0000 C   0  0  0  0  0  0  0  0  0  0  0  0
    5.9570    0.0840    0.0000 C   0  0  0  0  0  0  0  0  0  0  0  0
    5.2890   -1.7280    0.0000 C   0  0  0  0  0  0  0  0  0  0  0  0
    3.9750    1.3430    0.0000 C   0  0  0  0  0  0  0  0  0  0  0  0
    3.7940   -0.2390    0.0000 C   0  0  0  0  0  0  0  0  0  0  0  0
    3.7940   -1.8890    0.0000 C   0  0  0  0  0  0  0  0  0  0  0  0
    5.8720    0.9050    0.0000 C   0  0  0  0  0  0  0  0  0  0  0  0
    6.7100   -0.2530    0.0000 C   0  0  0  0  0  0  0  0  0  0  0  0
    3.0790   -0.6510    0.0000 C   0  0  0  0  0  0  0  0  0  0  0  0
    3.0790   -1.4760    0.0000 C   0  0  0  0  0  0  0  0  0  0  0  0
    6.5400    1.3880    0.0000 C   0  0  0  0  0  0  0  0  0  0  0  0
    7.3780    0.2310    0.0000 C   0  0  0  0  0  0  0  0  0  0  0  0
    7.2940    1.0520    0.0000 C   0  0  0  0  0  0  0  0  0  0  0  0
    2.9140    2.3010    0.0000 C   0  0  0  0  0  0  0  0  0  0  0  0
    2.6150    0.9040    0.0000 C   0  0  0  0  0  0  0  0  0  0  0  0
    2.3640   -1.8890    0.0000 C   0  0  0  0  0  0  0  0  0  0  0  0
  1 21  1  0  0  0  0
  2  5  1  0  0  0  0
  2 11  1  0  0  0  0
  3 12  1  0  0  0  0
  3 22  1  0  0  0  0
  3 23  1  0  0  0  0
  4 24  3  0  0  0  0
  5  6  1  0  0  0  0
  5  7  1  0  0  0  0
  5 10  1  0  0  0  0
  6  9  1  0  0  0  0
  7  8  2  0  0  0  0
  7 13  1  0  0  0  0
  8 11  1  0  0  0  0
  8 14  1  0  0  0  0
  9 12  1  0  0  0  0
 10 15  2  0  0  0  0
 10 16  1  0  0  0  0
 13 17  2  0  0  0  0
 14 18  2  0  0  0  0
 15 19  1  0  0  0  0
 16 20  2  0  0  0  0
 17 18  1  0  0  0  0
 18 24  1  0  0  0  0
 19 21  2  0  0  0  0
 20 21  1  0  0  0  0
M  END
>  <DATABASE_ID>
DB00215

>  <DATABASE_NAME>
drugbank

>  <SMILES>
Fc1ccc(cc1)C1(OCc2c1ccc(c2)C#N)CCCN(C)C

>  <INCHI_IDENTIFIER>
InChI=1S/C20H21FN2O/c1-23(2)11-3-10-20(17-5-7-18(21)8-6-17)19-9-4-15(13-22)12-16(19)14-24-20/h4-9,12H,3,10-11,14H2,1-2H3

>  <INCHI_KEY>
InChIKey=WSEQXVZVJXJVFP-UHFFFAOYSA-N

>  <JCHEM_ACCEPTOR_COUNT>
3

>  <JCHEM_AVERAGE_POLARIZABILITY>
35.396179

>  <JCHEM_BIOAVAILABILITY>
1

>  <JCHEM_DONOR_COUNT>
0

>  <JCHEM_EXACT_MASS>
324.16379

>  <JCHEM_FORMAL_CHARGE>
0

>  <JCHEM_FORMULA>
C20H21FN2O

>  <JCHEM_GHOSE_FILTER>
1

>  <JCHEM_IUPAC>
1-[3-(dimethylamino)propyl]-1-(4-fluorophenyl)-1,3-dihydro-2-benzofuran-5-carbonitrile

>  <ALOGPS_LOGP>
3.5799999

>  <JCHEM_LOGP>
3.7643042

>  <ALOGPS_LOGS>
-4.7399998

>  <JCHEM_MASS>
324.39191

>  <JCHEM_MDDR_LIKE_RULE>
0

>  <JCHEM_NUMBER_OF_RINGS>
3

>  <JCHEM_PHYSIOLOGICAL_CHARGE>
1

>  <JCHEM_PKA_STRONGEST_BASIC>
9.7849779

>  <JCHEM_POLAR_SURFACE_AREA>
36.259998

>  <JCHEM_REFRACTIVITY>
94.020203

>  <JCHEM_ROTATABLE_BOND_COUNT>
5

>  <JCHEM_RULE_OF_FIVE>
1

>  <ALOGPS_SOLUBILITY>
5.88e-03 g/l

>  <JCHEM_TRADITIONAL_IUPAC>
citalopram

>  <JCHEM_VEBER_RULE>
1

>  <DRUGBANK_ID>
DB00215

>  <DRUG_GROUPS>
approved

>  <GENERIC_NAME>
Citalopram

>  <SYNONYMS>
Nitalapram

>  <BRANDS>
Akarin; Celapram; Celexa; Ciazil; Cilift; Cipram; Cipramil; Ciprapine; Citabax; Citalec; Citol; Citopam; Citox; Citrol; Dalsan; Elopram; Humorup; Oropram; Pramcit; Recital; Seropram; Talam; Talohexal; Temperax; Vodelax; Zentius; Zetalo

>  <SALTS>
Citalopram Hydrobromide

$$$$
Eletriptan
 OpenBabel02121510022D

 27 30  0  0  1  0  0  0  0  0999 V2000
    3.7940    0.1620    0.0000 S   0  0  0  0  0  0  0  0  0  0  0  0
    3.3810   -0.5520    0.0000 O   0  0  0  0  0  0  0  0  0  0  0  0
    4.2060    0.8770    0.0000 O   0  0  0  0  0  0  0  0  0  0  0  0
    9.8220    0.4030    0.0000 N   0  0  0  0  0  0  0  0  0  0  0  0
    8.1470   -1.3260    0.0000 N   0  0  0  0  0  0  0  0  0  0  0  0
    9.2100    0.9560    0.0000 C   0  0  2  0  0  0  0  0  0  0  0  0
    9.5470    1.7090    0.0000 C   0  0  0  0  0  0  0  0  0  0  0  0
   10.3670    1.6210    0.0000 C   0  0  0  0  0  0  0  0  0  0  0  0
   10.5380    0.8140    0.0000 C   0  0  0  0  0  0  0  0  0  0  0  0
    8.4030    0.7860    0.0000 C   0  0  0  0  0  0  0  0  0  0  0  0
    8.1470    0.0020    0.0000 C   0  0  0  0  0  0  0  0  0  0  0  0
    9.7350   -0.4180    0.0000 C   0  0  0  0  0  0  0  0  0  0  0  0
    7.3660   -0.2500    0.0000 C   0  0  0  0  0  0  0  0  0  0  0  0
    8.6280   -0.6620    0.0000 C   0  0  0  0  0  0  0  0  0  0  0  0
    7.3660   -1.0750    0.0000 C   0  0  0  0  0  0  0  0  0  0  0  0
    6.6520    0.1620    0.0000 C   0  0  0  0  0  0  0  0  0  0  0  0
    5.9370   -0.2500    0.0000 C   0  0  0  0  0  0  0  0  0  0  0  0
    6.6520   -1.4880    0.0000 C   0  0  0  0  0  0  0  0  0  0  0  0
    5.2220    0.1620    0.0000 C   0  0  0  0  0  0  0  0  0  0  0  0
    5.9370   -1.0750    0.0000 C   0  0  0  0  0  0  0  0  0  0  0  0
    4.5080   -0.2500    0.0000 C   0  0  0  0  0  0  0  0  0  0  0  0
    3.0790    0.5750    0.0000 C   0  0  0  0  0  0  0  0  0  0  0  0
    2.3640    0.1620    0.0000 C   0  0  0  0  0  0  0  0  0  0  0  0
    3.0790    1.4000    0.0000 C   0  0  0  0  0  0  0  0  0  0  0  0
    1.6500    0.5750    0.0000 C   0  0  0  0  0  0  0  0  0  0  0  0
    2.3640    1.8130    0.0000 C   0  0  0  0  0  0  0  0  0  0  0  0
    1.6500    1.4000    0.0000 C   0  0  0  0  0  0  0  0  0  0  0  0
  1  2  2  0  0  0  0
  1  3  2  0  0  0  0
  1 21  1  0  0  0  0
  1 22  1  0  0  0  0
  4  6  1  0  0  0  0
  4  9  1  0  0  0  0
  4 12  1  0  0  0  0
  5 14  1  0  0  0  0
  5 15  1  0  0  0  0
  6  7  1  0  0  0  0
  6 10  1  1  0  0  0
  7  8  1  0  0  0  0
  8  9  1  0  0  0  0
 10 11  1  0  0  0  0
 11 13  1  0  0  0  0
 11 14  2  0  0  0  0
 13 15  2  0  0  0  0
 13 16  1  0  0  0  0
 15 18  1  0  0  0  0
 16 17  2  0  0  0  0
 17 19  1  0  0  0  0
 17 20  1  0  0  0  0
 18 20  2  0  0  0  0
 19 21  1  0  0  0  0
 22 23  2  0  0  0  0
 22 24  1  0  0  0  0
 23 25  1  0  0  0  0
 24 26  2  0  0  0  0
 25 27  2  0  0  0  0
 26 27  1  0  0  0  0
M  END
>  <DATABASE_ID>
DB00216

>  <DATABASE_NAME>
drugbank

>  <SMILES>
S(=O)(=O)(CCc1cc2c([nH]cc2C[C@@H]2N(CCC2)C)cc1)c1ccccc1

>  <INCHI_IDENTIFIER>
InChI=1S/C22H26N2O2S/c1-24-12-5-6-19(24)15-18-16-23-22-10-9-17(14-21(18)22)11-13-27(25,26)20-7-3-2-4-8-20/h2-4,7-10,14,16,19,23H,5-6,11-13,15H2,1H3/t19-/m1/s1

>  <INCHI_KEY>
InChIKey=PWVXXGRKLHYWKM-LJQANCHMSA-N

>  <JCHEM_ACCEPTOR_COUNT>
3

>  <JCHEM_AVERAGE_POLARIZABILITY>
42.989742

>  <JCHEM_BIOAVAILABILITY>
1

>  <JCHEM_DONOR_COUNT>
1

>  <JCHEM_EXACT_MASS>
382.17151

>  <JCHEM_FORMAL_CHARGE>
0

>  <JCHEM_FORMULA>
C22H26N2O2S

>  <JCHEM_GHOSE_FILTER>
1

>  <JCHEM_IUPAC>
5-[2-(benzenesulfonyl)ethyl]-3-{[(2R)-1-methylpyrrolidin-2-yl]methyl}-1H-indole

>  <ALOGPS_LOGP>
3.8399999

>  <JCHEM_LOGP>
3.7732625

>  <ALOGPS_LOGS>
-5.5100002

>  <JCHEM_MASS>
382.51901

>  <JCHEM_MDDR_LIKE_RULE>
1

>  <JCHEM_NUMBER_OF_RINGS>
4

>  <JCHEM_PHYSIOLOGICAL_CHARGE>
1

>  <JCHEM_PKA_STRONGEST_ACIDIC>
17.110289

>  <JCHEM_PKA_STRONGEST_BASIC>
8.373167

>  <JCHEM_POLAR_SURFACE_AREA>
53.169998

>  <JCHEM_REFRACTIVITY>
110.9416

>  <JCHEM_ROTATABLE_BOND_COUNT>
6

>  <JCHEM_RULE_OF_FIVE>
1

>  <ALOGPS_SOLUBILITY>
1.18e-03 g/l

>  <JCHEM_TRADITIONAL_IUPAC>
eletriptan

>  <JCHEM_VEBER_RULE>
0

>  <DRUGBANK_ID>
DB00216

>  <DRUG_GROUPS>
approved; investigational

>  <GENERIC_NAME>
Eletriptan

>  <BRANDS>
Relpax

>  <SALTS>
Eletriptan hydrobromide

$$$$
Bethanidine
 OpenBabel02121510022D

 13 13  0  0  0  0  0  0  0  0999 V2000
    3.0790    0.4120    0.0000 N   0  0  0  0  0  0  0  0  0  0  0  0
    3.7930    1.6500    0.0000 N   0  0  0  0  0  0  0  0  0  0  0  0
    2.3640    1.6500    0.0000 N   0  0  0  0  0  0  0  0  0  0  0  0
    2.3640    0.0000    0.0000 C   0  0  0  0  0  0  0  0  0  0  0  0
    2.3640   -0.8250    0.0000 C   0  0  0  0  0  0  0  0  0  0  0  0
    3.0790   -1.2380    0.0000 C   0  0  0  0  0  0  0  0  0  0  0  0
    1.6500   -1.2380    0.0000 C   0  0  0  0  0  0  0  0  0  0  0  0
    3.0790    1.2380    0.0000 C   0  0  0  0  0  0  0  0  0  0  0  0
    3.0790   -2.0620    0.0000 C   0  0  0  0  0  0  0  0  0  0  0  0
    1.6500   -2.0620    0.0000 C   0  0  0  0  0  0  0  0  0  0  0  0
    2.3640   -2.4750    0.0000 C   0  0  0  0  0  0  0  0  0  0  0  0
    3.7930    2.4750    0.0000 C   0  0  0  0  0  0  0  0  0  0  0  0
    2.3640    2.4750    0.0000 C   0  0  0  0  0  0  0  0  0  0  0  0
  1  4  1  0  0  0  0
  1  8  1  0  0  0  0
  2  8  1  0  0  0  0
  2 12  1  0  0  0  0
  3  8  2  0  0  0  0
  3 13  1  0  0  0  0
  4  5  1  0  0  0  0
  5  6  2  0  0  0  0
  5  7  1  0  0  0  0
  6  9  1  0  0  0  0
  7 10  2  0  0  0  0
  9 11  2  0  0  0  0
 10 11  1  0  0  0  0
M  END
>  <DATABASE_ID>
DB00217

>  <DATABASE_NAME>
drugbank

>  <SMILES>
N(=C(\NCc1ccccc1)/NC)/C

>  <INCHI_IDENTIFIER>
InChI=1S/C10H15N3/c1-11-10(12-2)13-8-9-6-4-3-5-7-9/h3-7H,8H2,1-2H3,(H2,11,12,13)

>  <INCHI_KEY>
InChIKey=NIVZHWNOUVJHKV-UHFFFAOYSA-N

>  <JCHEM_ACCEPTOR_COUNT>
3

>  <JCHEM_AVERAGE_POLARIZABILITY>
20.427071

>  <JCHEM_BIOAVAILABILITY>
1

>  <JCHEM_DONOR_COUNT>
2

>  <JCHEM_EXACT_MASS>
177.1266

>  <JCHEM_FORMAL_CHARGE>
0

>  <JCHEM_FORMULA>
C10H15N3

>  <JCHEM_GHOSE_FILTER>
1

>  <JCHEM_IUPAC>
(E)-3-benzyl-1,2-dimethylguanidine

>  <ALOGPS_LOGP>
1.41

>  <JCHEM_LOGP>
1.266529

>  <ALOGPS_LOGS>
-2.05

>  <JCHEM_MASS>
177.2462

>  <JCHEM_MDDR_LIKE_RULE>
0

>  <JCHEM_NUMBER_OF_RINGS>
1

>  <JCHEM_PHYSIOLOGICAL_CHARGE>
1

>  <JCHEM_PKA_STRONGEST_BASIC>
12.405615

>  <JCHEM_POLAR_SURFACE_AREA>
36.419998

>  <JCHEM_REFRACTIVITY>
54.502399

>  <JCHEM_ROTATABLE_BOND_COUNT>
2

>  <JCHEM_RULE_OF_FIVE>
1

>  <ALOGPS_SOLUBILITY>
1.58e+00 g/l

>  <JCHEM_TRADITIONAL_IUPAC>
bethanidine

>  <JCHEM_VEBER_RULE>
1

>  <DRUGBANK_ID>
DB00217

>  <DRUG_GROUPS>
approved

>  <GENERIC_NAME>
Bethanidine

>  <SYNONYMS>
Betanidine; N,N'-dimethyl-N''-(phenylmethyl)-guanidine

>  <BRANDS>
Esbatal

>  <SALTS>
Bethanidine sulfate

$$$$
Moxifloxacin
 OpenBabel02121510022D

 31 35  0  0  1  0  0  0  0  0999 V2000
    4.1870    1.4710    0.0000 F   0  0  0  0  0  0  0  0  0  0  0  0
    5.6160   -1.0040    0.0000 O   0  0  0  0  0  0  0  0  0  0  0  0
    7.0580    2.3250    0.0000 O   0  0  0  0  0  0  0  0  0  0  0  0
    9.2440    1.0810    0.0000 O   0  0  0  0  0  0  0  0  0  0  0  0
    8.5250    2.3160    0.0000 O   0  0  0  0  0  0  0  0  0  0  0  0
    4.1870   -0.1790    0.0000 N   0  0  0  0  0  0  0  0  0  0  0  0
    2.8880   -1.8820    0.0000 N   0  0  0  0  0  0  0  0  0  0  0  0
    7.0680   -0.2080    0.0000 N   0  0  0  0  0  0  0  0  0  0  0  0
    2.8880   -0.4530    0.0000 C   0  0  2  0  0  0  0  0  0  0  0  0
    3.3000   -1.1670    0.0000 C   0  0  1  0  0  0  0  0  0  0  0  0
    3.4380    0.1550    0.0000 C   0  0  0  0  0  0  0  0  0  0  0  0
    4.1020   -0.9950    0.0000 C   0  0  0  0  0  0  0  0  0  0  0  0
    2.0620   -0.4530    0.0000 C   0  0  0  0  0  0  0  0  0  0  0  0
    7.0580   -1.0320    0.0000 C   0  0  0  0  0  0  0  0  0  0  0  0
    1.6500   -1.1670    0.0000 C   0  0  0  0  0  0  0  0  0  0  0  0
    6.6380   -1.7420    0.0000 C   0  0  0  0  0  0  0  0  0  0  0  0
    7.4620   -1.7520    0.0000 C   0  0  0  0  0  0  0  0  0  0  0  0
    2.0620   -1.8820    0.0000 C   0  0  0  0  0  0  0  0  0  0  0  0
    4.9010    0.2340    0.0000 C   0  0  0  0  0  0  0  0  0  0  0  0
    6.3300    0.2340    0.0000 C   0  0  0  0  0  0  0  0  0  0  0  0
    5.6160   -0.1790    0.0000 C   0  0  0  0  0  0  0  0  0  0  0  0
    6.3300    1.0590    0.0000 C   0  0  0  0  0  0  0  0  0  0  0  0
    4.9010    1.0590    0.0000 C   0  0  0  0  0  0  0  0  0  0  0  0
    7.8150    0.2160    0.0000 C   0  0  0  0  0  0  0  0  0  0  0  0
    5.6160    1.4710    0.0000 C   0  0  0  0  0  0  0  0  0  0  0  0
    7.8150    1.0760    0.0000 C   0  0  0  0  0  0  0  0  0  0  0  0
    7.0680    1.5000    0.0000 C   0  0  0  0  0  0  0  0  0  0  0  0
    8.5280    1.4910    0.0000 C   0  0  0  0  0  0  0  0  0  0  0  0
    4.9010   -1.4160    0.0000 C   0  0  0  0  0  0  0  0  0  0  0  0
    2.6200    0.1510    0.0000 H   0  0  0  0  0  0  0  0  0  0  0  0
    3.6890   -1.7010    0.0000 H   0  0  0  0  0  0  0  0  0  0  0  0
  1 23  1  0  0  0  0
  2 21  1  0  0  0  0
  2 29  1  0  0  0  0
  3 27  2  0  0  0  0
  4 28  1  0  0  0  0
  5 28  2  0  0  0  0
  6 11  1  0  0  0  0
  6 12  1  0  0  0  0
  6 19  1  0  0  0  0
  7 10  1  0  0  0  0
  7 18  1  0  0  0  0
  8 14  1  0  0  0  0
  8 20  1  0  0  0  0
  8 24  1  0  0  0  0
  9 10  1  0  0  0  0
  9 11  1  0  0  0  0
  9 13  1  0  0  0  0
  9 30  1  6  0  0  0
 10 12  1  0  0  0  0
 10 31  1  6  0  0  0
 13 15  1  0  0  0  0
 14 16  1  0  0  0  0
 14 17  1  0  0  0  0
 15 18  1  0  0  0  0
 16 17  1  0  0  0  0
 19 21  1  0  0  0  0
 19 23  2  0  0  0  0
 20 21  2  0  0  0  0
 20 22  1  0  0  0  0
 22 25  2  0  0  0  0
 22 27  1  0  0  0  0
 23 25  1  0  0  0  0
 24 26  2  0  0  0  0
 26 27  1  0  0  0  0
 26 28  1  0  0  0  0
M  END
>  <DATABASE_ID>
DB00218

>  <DATABASE_NAME>
drugbank

>  <SMILES>
Fc1cc2c(N(C=C(C(O)=O)C2=O)C2CC2)c(OC)c1N1C[C@H]2[C@H](NCCC2)C1

>  <INCHI_IDENTIFIER>
InChI=1S/C21H24FN3O4/c1-29-20-17-13(19(26)14(21(27)28)9-25(17)12-4-5-12)7-15(22)18(20)24-8-11-3-2-6-23-16(11)10-24/h7,9,11-12,16,23H,2-6,8,10H2,1H3,(H,27,28)/t11-,16+/m0/s1

>  <INCHI_KEY>
InChIKey=FABPRXSRWADJSP-MEDUHNTESA-N

>  <JCHEM_ACCEPTOR_COUNT>
7

>  <JCHEM_AVERAGE_POLARIZABILITY>
41.244659

>  <JCHEM_BIOAVAILABILITY>
1

>  <JCHEM_DONOR_COUNT>
2

>  <JCHEM_EXACT_MASS>
401.17508

>  <JCHEM_FORMAL_CHARGE>
0

>  <JCHEM_FORMULA>
C21H24FN3O4

>  <JCHEM_GHOSE_FILTER>
0

>  <JCHEM_IUPAC>
7-[(4aS,7aS)-octahydro-1H-pyrrolo[3,4-b]pyridin-6-yl]-1-cyclopropyl-6-fluoro-8-methoxy-4-oxo-1,4-dihydroquinoline-3-carboxylic acid

>  <ALOGPS_LOGP>
0.0099999998

>  <JCHEM_LOGP>
-0.49897495

>  <ALOGPS_LOGS>
-3.3800001

>  <JCHEM_MASS>
401.4314

>  <JCHEM_MDDR_LIKE_RULE>
0

>  <JCHEM_NUMBER_OF_RINGS>
5

>  <JCHEM_PHYSIOLOGICAL_CHARGE>
0

>  <JCHEM_PKA_STRONGEST_ACIDIC>
5.6861296

>  <JCHEM_PKA_STRONGEST_BASIC>
9.423933

>  <JCHEM_POLAR_SURFACE_AREA>
82.110001

>  <JCHEM_REFRACTIVITY>
106.224

>  <JCHEM_ROTATABLE_BOND_COUNT>
4

>  <JCHEM_RULE_OF_FIVE>
1

>  <ALOGPS_SOLUBILITY>
1.68e-01 g/l

>  <JCHEM_TRADITIONAL_IUPAC>
moxifloxacin

>  <JCHEM_VEBER_RULE>
0

>  <DRUGBANK_ID>
DB00218

>  <DRUG_GROUPS>
approved; investigational

>  <GENERIC_NAME>
Moxifloxacin

>  <BRANDS>
Avelox; MOXEZA; Vigamox

>  <SALTS>
Moxifloxacin Hydrochloride

$$$$
Nelfinavir
 OpenBabel02121510022D

 42 45  0  0  1  0  0  0  0  0999 V2000
    3.7940    0.3080    0.0000 S   0  0  0  0  0  0  0  0  0  0  0  0
    5.2220   -2.1670    0.0000 O   0  0  0  0  0  0  0  0  0  0  0  0
    6.6520    0.3080    0.0000 O   0  0  0  0  0  0  0  0  0  0  0  0
    3.7940    1.1330    0.0000 O   0  0  0  0  0  0  0  0  0  0  0  0
    5.9370    4.0200    0.0000 O   0  0  0  0  0  0  0  0  0  0  0  0
    6.6520   -1.3420    0.0000 N   0  0  0  0  0  0  0  0  0  0  0  0
    5.9370   -3.4050    0.0000 N   0  0  0  0  0  0  0  0  0  0  0  0
    5.2220    1.1330    0.0000 N   0  0  0  0  0  0  0  0  0  0  0  0
    8.0800   -2.1670    0.0000 C   0  0  2  0  0  0  0  0  0  0  0  0
    8.0800   -1.3420    0.0000 C   0  0  1  0  0  0  0  0  0  0  0  0
    7.3660   -2.5800    0.0000 C   0  0  0  0  0  0  0  0  0  0  0  0
    7.3660   -0.9300    0.0000 C   0  0  0  0  0  0  0  0  0  0  0  0
    8.8180   -2.6080    0.0000 C   0  0  0  0  0  0  0  0  0  0  0  0
    8.8180   -0.9010    0.0000 C   0  0  0  0  0  0  0  0  0  0  0  0
    6.6520   -2.1670    0.0000 C   0  0  1  0  0  0  0  0  0  0  0  0
    9.5650   -2.1840    0.0000 C   0  0  0  0  0  0  0  0  0  0  0  0
    9.5650   -1.3250    0.0000 C   0  0  0  0  0  0  0  0  0  0  0  0
    5.9370   -0.9300    0.0000 C   0  0  0  0  0  0  0  0  0  0  0  0
    5.9370   -2.5800    0.0000 C   0  0  0  0  0  0  0  0  0  0  0  0
    5.9370   -0.1050    0.0000 C   0  0  2  0  0  0  0  0  0  0  0  0
    5.2220    0.3080    0.0000 C   0  0  2  0  0  0  0  0  0  0  0  0
    5.2220   -3.8170    0.0000 C   0  0  0  0  0  0  0  0  0  0  0  0
    4.5080   -0.1050    0.0000 C   0  0  0  0  0  0  0  0  0  0  0  0
    4.8100   -3.1030    0.0000 C   0  0  0  0  0  0  0  0  0  0  0  0
    4.5080   -4.2300    0.0000 C   0  0  0  0  0  0  0  0  0  0  0  0
    5.6350   -4.5320    0.0000 C   0  0  0  0  0  0  0  0  0  0  0  0
    4.5080    1.5450    0.0000 C   0  0  0  0  0  0  0  0  0  0  0  0
    4.5080    2.3700    0.0000 C   0  0  0  0  0  0  0  0  0  0  0  0
    3.0790   -0.1050    0.0000 C   0  0  0  0  0  0  0  0  0  0  0  0
    5.2220    2.7830    0.0000 C   0  0  0  0  0  0  0  0  0  0  0  0
    3.7940    2.7830    0.0000 C   0  0  0  0  0  0  0  0  0  0  0  0
    3.0790   -0.9300    0.0000 C   0  0  0  0  0  0  0  0  0  0  0  0
    2.3640    0.3080    0.0000 C   0  0  0  0  0  0  0  0  0  0  0  0
    5.2220    3.6080    0.0000 C   0  0  0  0  0  0  0  0  0  0  0  0
    5.9370    2.3700    0.0000 C   0  0  0  0  0  0  0  0  0  0  0  0
    3.7940    3.6080    0.0000 C   0  0  0  0  0  0  0  0  0  0  0  0
    2.3640   -1.3420    0.0000 C   0  0  0  0  0  0  0  0  0  0  0  0
    1.6500   -0.1050    0.0000 C   0  0  0  0  0  0  0  0  0  0  0  0
    4.5080    4.0200    0.0000 C   0  0  0  0  0  0  0  0  0  0  0  0
    1.6500   -0.9300    0.0000 C   0  0  0  0  0  0  0  0  0  0  0  0
    8.0750   -2.8270    0.0000 H   0  0  0  0  0  0  0  0  0  0  0  0
    8.0750   -0.6820    0.0000 H   0  0  0  0  0  0  0  0  0  0  0  0
  1 23  1  0  0  0  0
  1 29  1  0  0  0  0
  2 19  2  0  0  0  0
  4 27  2  0  0  0  0
  5 34  1  0  0  0  0
  6 12  1  0  0  0  0
  6 15  1  0  0  0  0
  6 18  1  0  0  0  0
  7 19  1  0  0  0  0
  7 22  1  0  0  0  0
  8 27  1  0  0  0  0
  9 10  1  0  0  0  0
  9 11  1  0  0  0  0
  9 13  1  0  0  0  0
  9 41  1  6  0  0  0
 10 12  1  0  0  0  0
 10 14  1  0  0  0  0
 10 42  1  6  0  0  0
 11 15  1  0  0  0  0
 13 16  1  0  0  0  0
 14 17  1  0  0  0  0
 15 19  1  1  0  0  0
 16 17  1  0  0  0  0
 20 18  1  6  0  0  0
 20  3  1  0  0  0  0
 20 21  1  0  0  0  0
 21  8  1  6  0  0  0
 21 23  1  0  0  0  0
 22 24  1  0  0  0  0
 22 25  1  0  0  0  0
 22 26  1  0  0  0  0
 27 28  1  0  0  0  0
 28 30  2  0  0  0  0
 28 31  1  0  0  0  0
 29 32  2  0  0  0  0
 29 33  1  0  0  0  0
 30 34  1  0  0  0  0
 30 35  1  0  0  0  0
 31 36  2  0  0  0  0
 32 37  1  0  0  0  0
 33 38  2  0  0  0  0
 34 39  2  0  0  0  0
 36 39  1  0  0  0  0
 37 40  2  0  0  0  0
 38 40  1  0  0  0  0
M  END
>  <DATABASE_ID>
DB00220

>  <DATABASE_NAME>
drugbank

>  <SMILES>
S(C[C@H](NC(=O)c1cccc(O)c1C)[C@H](O)CN1C[C@@H]2[C@H](C[C@H]1C(=O)NC(C)(C)C)CCCC2)c1ccccc1

>  <INCHI_IDENTIFIER>
InChI=1S/C32H45N3O4S/c1-21-25(15-10-16-28(21)36)30(38)33-26(20-40-24-13-6-5-7-14-24)29(37)19-35-18-23-12-9-8-11-22(23)17-27(35)31(39)34-32(2,3)4/h5-7,10,13-16,22-23,26-27,29,36-37H,8-9,11-12,17-20H2,1-4H3,(H,33,38)(H,34,39)/t22-,23+,26-,27-,29+/m0/s1

>  <INCHI_KEY>
InChIKey=QAGYKUNXZHXKMR-HKWSIXNMSA-N

>  <JCHEM_ACCEPTOR_COUNT>
5

>  <JCHEM_AVERAGE_POLARIZABILITY>
63.80175

>  <JCHEM_BIOAVAILABILITY>
1

>  <JCHEM_DONOR_COUNT>
4

>  <JCHEM_EXACT_MASS>
567.31305

>  <JCHEM_FORMAL_CHARGE>
0

>  <JCHEM_FORMULA>
C32H45N3O4S

>  <JCHEM_GHOSE_FILTER>
0

>  <JCHEM_IUPAC>
(3S,4aS,8aS)-N-tert-butyl-2-[(2R,3R)-2-hydroxy-3-[(3-hydroxy-2-methylphenyl)formamido]-4-(phenylsulfanyl)butyl]-decahydroisoquinoline-3-carboxamide

>  <ALOGPS_LOGP>
4.6100001

>  <JCHEM_LOGP>
4.7188282

>  <ALOGPS_LOGS>
-5.4699998

>  <JCHEM_MASS>
567.78198

>  <JCHEM_MDDR_LIKE_RULE>
1

>  <JCHEM_NUMBER_OF_RINGS>
4

>  <JCHEM_PHYSIOLOGICAL_CHARGE>
1

>  <JCHEM_PKA>
14.133903

>  <JCHEM_PKA_STRONGEST_ACIDIC>
9.3177738

>  <JCHEM_PKA_STRONGEST_BASIC>
8.1771326

>  <JCHEM_POLAR_SURFACE_AREA>
101.9

>  <JCHEM_REFRACTIVITY>
162.6745

>  <JCHEM_ROTATABLE_BOND_COUNT>
10

>  <JCHEM_RULE_OF_FIVE>
0

>  <ALOGPS_SOLUBILITY>
1.91e-03 g/l

>  <JCHEM_TRADITIONAL_IUPAC>
nelfinavir

>  <JCHEM_VEBER_RULE>
0

>  <DRUGBANK_ID>
DB00220

>  <DRUG_GROUPS>
approved

>  <GENERIC_NAME>
Nelfinavir

>  <BRANDS>
Viracept

>  <SALTS>
Nelfinavir mesylate

$$$$
Glimepiride
 OpenBabel02121510022D

 34 36  0  0  0  0  0  0  0  0999 V2000
    4.5310    2.3770    0.0000 S   0  0  0  0  0  0  0  0  0  0  0  0
    5.9600    3.2020    0.0000 O   0  0  0  0  0  0  0  0  0  0  0  0
    3.7060    2.3770    0.0000 O   0  0  0  0  0  0  0  0  0  0  0  0
    5.3560    2.3770    0.0000 O   0  0  0  0  0  0  0  0  0  0  0  0
    1.6500   -3.6280    0.0000 O   0  0  0  0  0  0  0  0  0  0  0  0
    2.3880   -2.1610    0.0000 O   0  0  0  0  0  0  0  0  0  0  0  0
    5.2460    4.4390    0.0000 N   0  0  0  0  0  0  0  0  0  0  0  0
    4.5310    3.2020    0.0000 N   0  0  0  0  0  0  0  0  0  0  0  0
    3.1020   -3.3980    0.0000 N   0  0  0  0  0  0  0  0  0  0  0  0
    3.8170   -2.1610    0.0000 N   0  0  0  0  0  0  0  0  0  0  0  0
    7.3890    5.6770    0.0000 C   0  0  3  0  0  0  0  0  0  0  0  0
    5.9600    4.8520    0.0000 C   0  0  3  0  0  0  0  0  0  0  0  0
    7.3890    4.8520    0.0000 C   0  0  0  0  0  0  0  0  0  0  0  0
    6.6750    6.0890    0.0000 C   0  0  0  0  0  0  0  0  0  0  0  0
    6.6750    4.4390    0.0000 C   0  0  0  0  0  0  0  0  0  0  0  0
    5.9600    5.6770    0.0000 C   0  0  0  0  0  0  0  0  0  0  0  0
    8.1040    6.0890    0.0000 C   0  0  0  0  0  0  0  0  0  0  0  0
    5.2460    3.6140    0.0000 C   0  0  0  0  0  0  0  0  0  0  0  0
    3.7700   -3.8830    0.0000 C   0  0  0  0  0  0  0  0  0  0  0  0
    3.5150   -4.6680    0.0000 C   0  0  0  0  0  0  0  0  0  0  0  0
    2.6900   -4.6680    0.0000 C   0  0  0  0  0  0  0  0  0  0  0  0
    4.5310    1.5520    0.0000 C   0  0  0  0  0  0  0  0  0  0  0  0
    2.4350   -3.8830    0.0000 C   0  0  0  0  0  0  0  0  0  0  0  0
    2.2050   -5.3360    0.0000 C   0  0  0  0  0  0  0  0  0  0  0  0
    4.5310   -0.9230    0.0000 C   0  0  0  0  0  0  0  0  0  0  0  0
    4.5310   -0.0980    0.0000 C   0  0  0  0  0  0  0  0  0  0  0  0
    3.1020   -2.5740    0.0000 C   0  0  0  0  0  0  0  0  0  0  0  0
    3.8170   -1.3360    0.0000 C   0  0  0  0  0  0  0  0  0  0  0  0
    3.8170    1.1390    0.0000 C   0  0  0  0  0  0  0  0  0  0  0  0
    5.2460    1.1390    0.0000 C   0  0  0  0  0  0  0  0  0  0  0  0
    4.0000   -5.3360    0.0000 C   0  0  0  0  0  0  0  0  0  0  0  0
    3.8170    0.3140    0.0000 C   0  0  0  0  0  0  0  0  0  0  0  0
    5.2460    0.3140    0.0000 C   0  0  0  0  0  0  0  0  0  0  0  0
    2.5400   -6.0890    0.0000 C   0  0  0  0  0  0  0  0  0  0  0  0
  1  3  2  0  0  0  0
  1  4  2  0  0  0  0
  1  8  1  0  0  0  0
  1 22  1  0  0  0  0
  2 18  2  0  0  0  0
  5 23  2  0  0  0  0
  6 27  2  0  0  0  0
  7 12  1  0  0  0  0
  7 18  1  0  0  0  0
  8 18  1  0  0  0  0
  9 19  1  0  0  0  0
  9 23  1  0  0  0  0
  9 27  1  0  0  0  0
 10 27  1  0  0  0  0
 10 28  1  0  0  0  0
 11 13  1  0  0  0  0
 11 14  1  0  0  0  0
 11 17  1  0  0  0  0
 12 15  1  0  0  0  0
 12 16  1  0  0  0  0
 13 15  1  0  0  0  0
 14 16  1  0  0  0  0
 19 20  1  0  0  0  0
 20 21  2  0  0  0  0
 20 31  1  0  0  0  0
 21 23  1  0  0  0  0
 21 24  1  0  0  0  0
 22 29  2  0  0  0  0
 22 30  1  0  0  0  0
 24 34  1  0  0  0  0
 25 26  1  0  0  0  0
 25 28  1  0  0  0  0
 26 32  2  0  0  0  0
 26 33  1  0  0  0  0
 29 32  1  0  0  0  0
 30 33  2  0  0  0  0
M  END
>  <DATABASE_ID>
DB00222

>  <DATABASE_NAME>
drugbank

>  <SMILES>
S(=O)(=O)(NC(=O)NC1CCC(CC1)C)c1ccc(cc1)CCNC(=O)N1CC(C)=C(CC)C1=O

>  <INCHI_IDENTIFIER>
InChI=1S/C24H34N4O5S/c1-4-21-17(3)15-28(22(21)29)24(31)25-14-13-18-7-11-20(12-8-18)34(32,33)27-23(30)26-19-9-5-16(2)6-10-19/h7-8,11-12,16,19H,4-6,9-10,13-15H2,1-3H3,(H,25,31)(H2,26,27,30)

>  <INCHI_KEY>
InChIKey=WIGIZIANZCJQQY-UHFFFAOYSA-N

>  <JCHEM_ACCEPTOR_COUNT>
5

>  <JCHEM_AVERAGE_POLARIZABILITY>
53.857906

>  <JCHEM_BIOAVAILABILITY>
1

>  <JCHEM_DONOR_COUNT>
3

>  <JCHEM_EXACT_MASS>
490.22501

>  <JCHEM_FORMAL_CHARGE>
0

>  <JCHEM_FORMULA>
C24H34N4O5S

>  <JCHEM_GHOSE_FILTER>
0

>  <JCHEM_IUPAC>
3-ethyl-4-methyl-N-{2-[4-({[(4-methylcyclohexyl)carbamoyl]amino}sulfonyl)phenyl]ethyl}-2-oxo-2,5-dihydro-1H-pyrrole-1-carboxamide

>  <ALOGPS_LOGP>
2.8199999

>  <JCHEM_LOGP>
3.1205344

>  <ALOGPS_LOGS>
-4.1100001

>  <JCHEM_MASS>
490.616

>  <JCHEM_MDDR_LIKE_RULE>
1

>  <JCHEM_NUMBER_OF_RINGS>
3

>  <JCHEM_PHYSIOLOGICAL_CHARGE>
-1

>  <JCHEM_PKA>
14.122872

>  <JCHEM_PKA_STRONGEST_ACIDIC>
4.3201776

>  <JCHEM_PKA_STRONGEST_BASIC>
-3.676713

>  <JCHEM_POLAR_SURFACE_AREA>
124.68

>  <JCHEM_REFRACTIVITY>
129.8042

>  <JCHEM_ROTATABLE_BOND_COUNT>
6

>  <JCHEM_RULE_OF_FIVE>
1

>  <ALOGPS_SOLUBILITY>
3.84e-02 g/l

>  <JCHEM_TRADITIONAL_IUPAC>
3-ethyl-4-methyl-N-[2-(4-{[(4-methylcyclohexyl)carbamoyl]aminosulfonyl}phenyl)ethyl]-2-oxo-5H-pyrrole-1-carboxamide

>  <JCHEM_VEBER_RULE>
0

>  <DRUGBANK_ID>
DB00222

>  <DRUG_GROUPS>
approved

>  <GENERIC_NAME>
Glimepiride

>  <SYNONYMS>
Glimepirida; Glimépiride; Glimepiridum

>  <BRANDS>
Amaryl; GLIMPID; GLIMY

$$$$
Indinavir
 OpenBabel02121510022D

 45 49  0  0  1  0  0  0  0  0999 V2000
    6.2820   -0.1700    0.0000 O   0  0  0  0  0  0  0  0  0  0  0  0
    5.1660   -1.3440    0.0000 O   0  0  0  0  0  0  0  0  0  0  0  0
    8.4090    1.7390    0.0000 O   0  0  0  0  0  0  0  0  0  0  0  0
    5.4740   -0.3400    0.0000 O   0  0  0  0  0  0  0  0  0  0  0  0
    7.8960    0.1700    0.0000 N   0  0  0  0  0  0  0  0  0  0  0  0
    8.9980   -1.0580    0.0000 N   0  0  0  0  0  0  0  0  0  0  0  0
    4.1160    0.1040    0.0000 N   0  0  0  0  0  0  0  0  0  0  0  0
    9.7670    1.2950    0.0000 N   0  0  0  0  0  0  0  0  0  0  0  0
    9.5880   -3.8540    0.0000 N   0  0  0  0  0  0  0  0  0  0  0  0
    8.7030    0.3400    0.0000 C   0  0  1  0  0  0  0  0  0  0  0  0
    9.2540   -0.2740    0.0000 C   0  0  0  0  0  0  0  0  0  0  0  0
    7.6400   -0.6140    0.0000 C   0  0  0  0  0  0  0  0  0  0  0  0
    7.3450    0.7840    0.0000 C   0  0  0  0  0  0  0  0  0  0  0  0
    8.1910   -1.2280    0.0000 C   0  0  0  0  0  0  0  0  0  0  0  0
    6.5380    0.6140    0.0000 C   0  0  2  0  0  0  0  0  0  0  0  0
    5.9870    1.2280    0.0000 C   0  0  0  0  0  0  0  0  0  0  0  0
    5.1800    1.0580    0.0000 C   0  0  2  0  0  0  0  0  0  0  0  0
    3.8600   -0.6810    0.0000 C   0  0  2  0  0  0  0  0  0  0  0  0
    8.9600    1.1240    0.0000 C   0  0  0  0  0  0  0  0  0  0  0  0
    4.3410   -1.3440    0.0000 C   0  0  1  0  0  0  0  0  0  0  0  0
    9.5490   -1.6720    0.0000 C   0  0  0  0  0  0  0  0  0  0  0  0
    3.8600   -2.0080    0.0000 C   0  0  0  0  0  0  0  0  0  0  0  0
    3.0790   -0.9320    0.0000 C   0  0  0  0  0  0  0  0  0  0  0  0
    4.9230    0.2740    0.0000 C   0  0  0  0  0  0  0  0  0  0  0  0
    4.6290    1.6720    0.0000 C   0  0  0  0  0  0  0  0  0  0  0  0
    3.0790   -1.7570    0.0000 C   0  0  0  0  0  0  0  0  0  0  0  0
   10.3180    0.6810    0.0000 C   0  0  0  0  0  0  0  0  0  0  0  0
    9.2930   -2.4560    0.0000 C   0  0  0  0  0  0  0  0  0  0  0  0
    2.3640   -0.5190    0.0000 C   0  0  0  0  0  0  0  0  0  0  0  0
    4.8850    2.4560    0.0000 C   0  0  0  0  0  0  0  0  0  0  0  0
    2.3640   -2.1700    0.0000 C   0  0  0  0  0  0  0  0  0  0  0  0
    9.7040    0.1300    0.0000 C   0  0  0  0  0  0  0  0  0  0  0  0
   10.9320    1.2320    0.0000 C   0  0  0  0  0  0  0  0  0  0  0  0
   10.8690    0.0660    0.0000 C   0  0  0  0  0  0  0  0  0  0  0  0
    1.6500   -0.9320    0.0000 C   0  0  0  0  0  0  0  0  0  0  0  0
    1.6500   -1.7570    0.0000 C   0  0  0  0  0  0  0  0  0  0  0  0
    8.4860   -2.6260    0.0000 C   0  0  0  0  0  0  0  0  0  0  0  0
    9.8440   -3.0700    0.0000 C   0  0  0  0  0  0  0  0  0  0  0  0
    4.3340    3.0700    0.0000 C   0  0  0  0  0  0  0  0  0  0  0  0
    5.6920    2.6260    0.0000 C   0  0  0  0  0  0  0  0  0  0  0  0
    8.2290   -3.4110    0.0000 C   0  0  0  0  0  0  0  0  0  0  0  0
    4.5900    3.8540    0.0000 C   0  0  0  0  0  0  0  0  0  0  0  0
    5.9480    3.4110    0.0000 C   0  0  0  0  0  0  0  0  0  0  0  0
    5.3980    4.0250    0.0000 C   0  0  0  0  0  0  0  0  0  0  0  0
    8.7800   -4.0250    0.0000 C   0  0  0  0  0  0  0  0  0  0  0  0
  3 19  2  0  0  0  0
  4 24  2  0  0  0  0
  5 10  1  0  0  0  0
  5 12  1  0  0  0  0
  5 13  1  0  0  0  0
  6 11  1  0  0  0  0
  6 14  1  0  0  0  0
  6 21  1  0  0  0  0
  7 24  1  0  0  0  0
  8 19  1  0  0  0  0
  8 27  1  0  0  0  0
  9 38  1  0  0  0  0
  9 45  2  0  0  0  0
 10 11  1  0  0  0  0
 10 19  1  6  0  0  0
 12 14  1  0  0  0  0
 15 13  1  1  0  0  0
 15  1  1  0  0  0  0
 15 16  1  0  0  0  0
 17 16  1  6  0  0  0
 17 24  1  0  0  0  0
 17 25  1  0  0  0  0
 18  7  1  6  0  0  0
 18 20  1  0  0  0  0
 18 23  1  0  0  0  0
 20  2  1  6  0  0  0
 20 22  1  0  0  0  0
 21 28  1  0  0  0  0
 22 26  1  0  0  0  0
 23 26  1  0  0  0  0
 23 29  2  0  0  0  0
 25 30  1  0  0  0  0
 26 31  2  0  0  0  0
 27 32  1  0  0  0  0
 27 33  1  0  0  0  0
 27 34  1  0  0  0  0
 28 37  1  0  0  0  0
 28 38  2  0  0  0  0
 29 35  1  0  0  0  0
 30 39  2  0  0  0  0
 30 40  1  0  0  0  0
 31 36  1  0  0  0  0
 35 36  2  0  0  0  0
 37 41  2  0  0  0  0
 39 42  1  0  0  0  0
 40 43  2  0  0  0  0
 41 45  1  0  0  0  0
 42 44  2  0  0  0  0
 43 44  1  0  0  0  0
M  END
>  <DATABASE_ID>
DB00224

>  <DATABASE_NAME>
drugbank

>  <SMILES>
O[C@@H]1Cc2c(cccc2)[C@@H]1NC(=O)[C@H](Cc1ccccc1)C[C@H](O)CN1CCN(C[C@H]1C(=O)NC(C)(C)C)Cc1cccnc1

>  <INCHI_IDENTIFIER>
InChI=1S/C36H47N5O4/c1-36(2,3)39-35(45)31-24-40(22-26-12-9-15-37-21-26)16-17-41(31)23-29(42)19-28(18-25-10-5-4-6-11-25)34(44)38-33-30-14-8-7-13-27(30)20-32(33)43/h4-15,21,28-29,31-33,42-43H,16-20,22-24H2,1-3H3,(H,38,44)(H,39,45)/t28-,29+,31+,32-,33+/m1/s1

>  <INCHI_KEY>
InChIKey=CBVCZFGXHXORBI-PXQQMZJSSA-N

>  <JCHEM_ACCEPTOR_COUNT>
7

>  <JCHEM_AVERAGE_POLARIZABILITY>
68.627701

>  <JCHEM_BIOAVAILABILITY>
0

>  <JCHEM_DONOR_COUNT>
4

>  <JCHEM_EXACT_MASS>
613.36279

>  <JCHEM_FORMAL_CHARGE>
0

>  <JCHEM_FORMULA>
C36H47N5O4

>  <JCHEM_GHOSE_FILTER>
0

>  <JCHEM_IUPAC>
(2S)-1-[(2S,4R)-4-benzyl-2-hydroxy-4-{[(1S,2R)-2-hydroxy-2,3-dihydro-1H-inden-1-yl]carbamoyl}butyl]-N-tert-butyl-4-(pyridin-3-ylmethyl)piperazine-2-carboxamide

>  <ALOGPS_LOGP>
3.26

>  <JCHEM_LOGP>
2.8099308

>  <ALOGPS_LOGS>
-4.1100001

>  <JCHEM_MASS>
613.78949

>  <JCHEM_MDDR_LIKE_RULE>
1

>  <JCHEM_NUMBER_OF_RINGS>
5

>  <JCHEM_PHYSIOLOGICAL_CHARGE>
1

>  <JCHEM_PKA>
14.211854

>  <JCHEM_PKA_STRONGEST_ACIDIC>
13.191399

>  <JCHEM_PKA_STRONGEST_BASIC>
7.3708105

>  <JCHEM_POLAR_SURFACE_AREA>
118.03

>  <JCHEM_REFRACTIVITY>
175.8941

>  <JCHEM_ROTATABLE_BOND_COUNT>
12

>  <JCHEM_RULE_OF_FIVE>
0

>  <ALOGPS_SOLUBILITY>
4.82e-02 g/l

>  <JCHEM_TRADITIONAL_IUPAC>
indinavir

>  <JCHEM_VEBER_RULE>
0

>  <DRUGBANK_ID>
DB00224

>  <DRUG_GROUPS>
approved

>  <GENERIC_NAME>
Indinavir

>  <BRANDS>
Crixivan

>  <SALTS>
Indinavir sulfate

$$$$
Lovastatin
 OpenBabel02121510022D

 30 32  0  0  1  0  0  0  0  0999 V2000
    3.0790    0.4580    0.0000 O   0  0  0  0  0  0  0  0  0  0  0  0
    5.9310   -1.2370    0.0000 O   0  0  0  0  0  0  0  0  0  0  0  0
    3.7740   -2.4500    0.0000 O   0  0  0  0  0  0  0  0  0  0  0  0
    1.6500    0.4580    0.0000 O   0  0  0  0  0  0  0  0  0  0  0  0
    6.6310   -2.4830    0.0000 O   0  0  0  0  0  0  0  0  0  0  0  0
    3.7940    1.6950    0.0000 C   0  0  1  0  0  0  0  0  0  0  0  0
    4.5310    1.2540    0.0000 C   0  0  2  0  0  0  0  0  0  0  0  0
    3.0790    1.2830    0.0000 C   0  0  2  0  0  0  0  0  0  0  0  0
    5.2780    1.6780    0.0000 C   0  0  2  0  0  0  0  0  0  0  0  0
    3.7940    2.5200    0.0000 C   0  0  0  0  0  0  0  0  0  0  0  0
    4.5220    0.4290    0.0000 C   0  0  0  0  0  0  0  0  0  0  0  0
    2.3640    1.6950    0.0000 C   0  0  0  0  0  0  0  0  0  0  0  0
    2.3640    2.5200    0.0000 C   0  0  2  0  0  0  0  0  0  0  0  0
    3.0790    2.9330    0.0000 C   0  0  0  0  0  0  0  0  0  0  0  0
    5.2310    0.0080    0.0000 C   0  0  0  0  0  0  0  0  0  0  0  0
    5.2780    2.5370    0.0000 C   0  0  0  0  0  0  0  0  0  0  0  0
    4.5310    2.9610    0.0000 C   0  0  0  0  0  0  0  0  0  0  0  0
    5.9910    1.2630    0.0000 C   0  0  0  0  0  0  0  0  0  0  0  0
    5.2220   -0.8160    0.0000 C   0  0  2  0  0  0  0  0  0  0  0  0
    1.6500    2.9330    0.0000 C   0  0  0  0  0  0  0  0  0  0  0  0
    4.5020   -1.2210    0.0000 C   0  0  0  0  0  0  0  0  0  0  0  0
    4.4930   -2.0460    0.0000 C   0  0  2  0  0  0  0  0  0  0  0  0
    2.3640    0.0450    0.0000 C   0  0  0  0  0  0  0  0  0  0  0  0
    5.2020   -2.4660    0.0000 C   0  0  0  0  0  0  0  0  0  0  0  0
    2.3640   -0.7800    0.0000 C   0  0  2  0  0  0  0  0  0  0  0  0
    5.9220   -2.0620    0.0000 C   0  0  0  0  0  0  0  0  0  0  0  0
    1.6500   -1.1920    0.0000 C   0  0  0  0  0  0  0  0  0  0  0  0
    3.0790   -1.1920    0.0000 C   0  0  0  0  0  0  0  0  0  0  0  0
    1.6500   -2.0170    0.0000 C   0  0  0  0  0  0  0  0  0  0  0  0
    3.7880    1.0350    0.0000 H   0  0  0  0  0  0  0  0  0  0  0  0
  1 23  1  0  0  0  0
  2 19  1  0  0  0  0
  2 26  1  0  0  0  0
  4 23  2  0  0  0  0
  5 26  2  0  0  0  0
  6  7  1  0  0  0  0
  6  8  1  0  0  0  0
  6 10  1  0  0  0  0
  6 30  1  6  0  0  0
  7  9  1  0  0  0  0
  7 11  1  6  0  0  0
  8  1  1  1  0  0  0
  8 12  1  0  0  0  0
  9 16  1  0  0  0  0
  9 18  1  6  0  0  0
 10 14  2  0  0  0  0
 10 17  1  0  0  0  0
 11 15  1  0  0  0  0
 12 13  1  0  0  0  0
 13 14  1  0  0  0  0
 13 20  1  1  0  0  0
 16 17  2  0  0  0  0
 19 15  1  1  0  0  0
 19 21  1  0  0  0  0
 21 22  1  0  0  0  0
 22  3  1  6  0  0  0
 22 24  1  0  0  0  0
 24 26  1  0  0  0  0
 25 23  1  1  0  0  0
 25 27  1  0  0  0  0
 25 28  1  0  0  0  0
 27 29  1  0  0  0  0
M  END
>  <DATABASE_ID>
DB00227

>  <DATABASE_NAME>
drugbank

>  <SMILES>
O1[C@@H](C[C@@H](O)CC1=O)CC[C@@H]1[C@@H]2C(=C[C@@H](C[C@@H]2OC(=O)[C@H](CC)C)C)C=C[C@@H]1C

>  <INCHI_IDENTIFIER>
InChI=1S/C24H36O5/c1-5-15(3)24(27)29-21-11-14(2)10-17-7-6-16(4)20(23(17)21)9-8-19-12-18(25)13-22(26)28-19/h6-7,10,14-16,18-21,23,25H,5,8-9,11-13H2,1-4H3/t14-,15-,16-,18+,19+,20-,21-,23-/m0/s1

>  <INCHI_KEY>
InChIKey=PCZOHLXUXFIOCF-BXMDZJJMSA-N

>  <JCHEM_ACCEPTOR_COUNT>
3

>  <JCHEM_AVERAGE_POLARIZABILITY>
46.112663

>  <JCHEM_BIOAVAILABILITY>
1

>  <JCHEM_DONOR_COUNT>
1

>  <JCHEM_EXACT_MASS>
404.25629

>  <JCHEM_FORMAL_CHARGE>
0

>  <JCHEM_FORMULA>
C24H36O5

>  <JCHEM_GHOSE_FILTER>
1

>  <JCHEM_IUPAC>
(1S,3R,7S,8S,8aR)-8-{2-[(2R,4R)-4-hydroxy-6-oxooxan-2-yl]ethyl}-3,7-dimethyl-1,2,3,7,8,8a-hexahydronaphthalen-1-yl (2S)-2-methylbutanoate

>  <ALOGPS_LOGP>
4.1100001

>  <JCHEM_LOGP>
3.9021869

>  <ALOGPS_LOGS>
-4.2199998

>  <JCHEM_MASS>
404.53961

>  <JCHEM_MDDR_LIKE_RULE>
1

>  <JCHEM_NUMBER_OF_RINGS>
3

>  <JCHEM_PHYSIOLOGICAL_CHARGE>
0

>  <JCHEM_PKA_STRONGEST_ACIDIC>
14.914537

>  <JCHEM_PKA_STRONGEST_BASIC>
-2.8361812

>  <JCHEM_POLAR_SURFACE_AREA>
72.830002

>  <JCHEM_REFRACTIVITY>
113.1824

>  <JCHEM_ROTATABLE_BOND_COUNT>
7

>  <JCHEM_RULE_OF_FIVE>
1

>  <ALOGPS_SOLUBILITY>
2.43e-02 g/l

>  <JCHEM_TRADITIONAL_IUPAC>
lovastatin

>  <JCHEM_VEBER_RULE>
0

>  <DRUGBANK_ID>
DB00227

>  <DRUG_GROUPS>
approved; investigational

>  <GENERIC_NAME>
Lovastatin

>  <SYNONYMS>
6-alpha-methylcompactin; 6α-methylcompactin; Lovastatina; Lovastatine; Lovastatinum

>  <BRANDS>
Altocor; Altoprev; Mevacor

$$$$
Pregabalin
 OpenBabel02121510022D

 11 10  0  0  1  0  0  0  0  0999 V2000
    5.2220    0.4620    0.0000 O   0  0  0  0  0  0  0  0  0  0  0  0
    4.5080   -0.7760    0.0000 O   0  0  0  0  0  0  0  0  0  0  0  0
    2.3640   -1.1880    0.0000 N   0  0  0  0  0  0  0  0  0  0  0  0
    3.0790    0.0500    0.0000 C   0  0  1  0  0  0  0  0  0  0  0  0
    2.3640    0.4620    0.0000 C   0  0  0  0  0  0  0  0  0  0  0  0
    2.3640    1.2870    0.0000 C   0  0  0  0  0  0  0  0  0  0  0  0
    3.7940    0.4620    0.0000 C   0  0  0  0  0  0  0  0  0  0  0  0
    3.0790   -0.7760    0.0000 C   0  0  0  0  0  0  0  0  0  0  0  0
    1.6500    1.7000    0.0000 C   0  0  0  0  0  0  0  0  0  0  0  0
    3.0790    1.7000    0.0000 C   0  0  0  0  0  0  0  0  0  0  0  0
    4.5080    0.0500    0.0000 C   0  0  0  0  0  0  0  0  0  0  0  0
  1 11  1  0  0  0  0
  2 11  2  0  0  0  0
  3  8  1  0  0  0  0
  4  5  1  1  0  0  0
  4  7  1  0  0  0  0
  4  8  1  0  0  0  0
  5  6  1  0  0  0  0
  6  9  1  0  0  0  0
  6 10  1  0  0  0  0
  7 11  1  0  0  0  0
M  END
>  <DATABASE_ID>
DB00230

>  <DATABASE_NAME>
drugbank

>  <SMILES>
OC(=O)C[C@H](CC(C)C)CN

>  <INCHI_IDENTIFIER>
InChI=1S/C8H17NO2/c1-6(2)3-7(5-9)4-8(10)11/h6-7H,3-5,9H2,1-2H3,(H,10,11)/t7-/m0/s1

>  <INCHI_KEY>
InChIKey=AYXYPKUFHZROOJ-ZETCQYMHSA-N

>  <JCHEM_ACCEPTOR_COUNT>
3

>  <JCHEM_AVERAGE_POLARIZABILITY>
18.083155

>  <JCHEM_BIOAVAILABILITY>
1

>  <JCHEM_DONOR_COUNT>
2

>  <JCHEM_EXACT_MASS>
159.12593

>  <JCHEM_FORMAL_CHARGE>
0

>  <JCHEM_FORMULA>
C8H17NO2

>  <JCHEM_GHOSE_FILTER>
0

>  <JCHEM_IUPAC>
(3S)-3-(aminomethyl)-5-methylhexanoic acid

>  <ALOGPS_LOGP>
-1.35

>  <JCHEM_LOGP>
-1.3455846

>  <ALOGPS_LOGS>
-1.15

>  <JCHEM_MASS>
159.2261

>  <JCHEM_MDDR_LIKE_RULE>
0

>  <JCHEM_NUMBER_OF_RINGS>
0

>  <JCHEM_PHYSIOLOGICAL_CHARGE>
0

>  <JCHEM_PKA_STRONGEST_ACIDIC>
4.8009205

>  <JCHEM_PKA_STRONGEST_BASIC>
10.229664

>  <JCHEM_POLAR_SURFACE_AREA>
63.32

>  <JCHEM_REFRACTIVITY>
43.68

>  <JCHEM_ROTATABLE_BOND_COUNT>
5

>  <JCHEM_RULE_OF_FIVE>
1

>  <ALOGPS_SOLUBILITY>
1.13e+01 g/l

>  <JCHEM_TRADITIONAL_IUPAC>
pregabalin

>  <JCHEM_VEBER_RULE>
0

>  <DRUGBANK_ID>
DB00230

>  <DRUG_GROUPS>
approved; illicit; investigational

>  <GENERIC_NAME>
Pregabalin

>  <SYNONYMS>
CI-1008; S-(+)-3-isobutylgaba

>  <BRANDS>
Lyrica

$$$$
Temazepam
 OpenBabel02121510022D

 21 23  0  0  1  0  0  0  0  0999 V2000
    2.8170   -2.3780    0.0000 Cl  0  0  0  0  0  0  0  0  0  0  0  0
    4.1520    2.3400    0.0000 O   0  0  0  0  0  0  0  0  0  0  0  0
    2.6110    2.3400    0.0000 O   0  0  0  0  0  0  0  0  0  0  0  0
    2.4540    0.9520    0.0000 N   0  0  0  0  0  0  0  0  0  0  0  0
    4.3080    0.9520    0.0000 N   0  0  0  0  0  0  0  0  0  0  0  0
    2.6380    0.1480    0.0000 C   0  0  0  0  0  0  0  0  0  0  0  0
    3.3810   -0.2100    0.0000 C   0  0  0  0  0  0  0  0  0  0  0  0
    4.1240    0.1480    0.0000 C   0  0  0  0  0  0  0  0  0  0  0  0
    3.7940    1.5970    0.0000 C   0  0  3  0  0  0  0  0  0  0  0  0
    2.9690    1.5970    0.0000 C   0  0  0  0  0  0  0  0  0  0  0  0
    4.7690   -0.3670    0.0000 C   0  0  0  0  0  0  0  0  0  0  0  0
    3.4590   -1.0660    0.0000 C   0  0  0  0  0  0  0  0  0  0  0  0
    1.9200   -0.3260    0.0000 C   0  0  0  0  0  0  0  0  0  0  0  0
    1.6500    1.1350    0.0000 C   0  0  0  0  0  0  0  0  0  0  0  0
    2.7520   -1.5560    0.0000 C   0  0  0  0  0  0  0  0  0  0  0  0
    1.9780   -1.1830    0.0000 C   0  0  0  0  0  0  0  0  0  0  0  0
    5.5370   -0.0660    0.0000 C   0  0  0  0  0  0  0  0  0  0  0  0
    4.6460   -1.1830    0.0000 C   0  0  0  0  0  0  0  0  0  0  0  0
    6.1820   -0.5800    0.0000 C   0  0  0  0  0  0  0  0  0  0  0  0
    5.2920   -1.6970    0.0000 C   0  0  0  0  0  0  0  0  0  0  0  0
    6.0600   -1.3960    0.0000 C   0  0  0  0  0  0  0  0  0  0  0  0
  1 15  1  0  0  0  0
  2  9  1  0  0  0  0
  3 10  2  0  0  0  0
  4  6  1  0  0  0  0
  4 10  1  0  0  0  0
  4 14  1  0  0  0  0
  5  8  2  0  0  0  0
  5  9  1  0  0  0  0
  6  7  2  0  0  0  0
  6 13  1  0  0  0  0
  7  8  1  0  0  0  0
  7 12  1  0  0  0  0
  8 11  1  0  0  0  0
  9 10  1  0  0  0  0
 11 17  2  0  0  0  0
 11 18  1  0  0  0  0
 12 15  2  0  0  0  0
 13 16  2  0  0  0  0
 15 16  1  0  0  0  0
 17 19  1  0  0  0  0
 18 20  2  0  0  0  0
 19 21  2  0  0  0  0
 20 21  1  0  0  0  0
M  END
>  <DATABASE_ID>
DB00231

>  <DATABASE_NAME>
drugbank

>  <SMILES>
Clc1cc2c(N(C)C(=O)C(O)N=C2c2ccccc2)cc1

>  <INCHI_IDENTIFIER>
InChI=1S/C16H13ClN2O2/c1-19-13-8-7-11(17)9-12(13)14(18-15(20)16(19)21)10-5-3-2-4-6-10/h2-9,15,20H,1H3

>  <INCHI_KEY>
InChIKey=SEQDDYPDSLOBDC-UHFFFAOYSA-N

>  <JCHEM_ACCEPTOR_COUNT>
3

>  <JCHEM_AVERAGE_POLARIZABILITY>
30.321186

>  <JCHEM_BIOAVAILABILITY>
1

>  <JCHEM_DONOR_COUNT>
1

>  <JCHEM_EXACT_MASS>
300.06656

>  <JCHEM_FORMAL_CHARGE>
0

>  <JCHEM_FORMULA>
C16H13ClN2O2

>  <JCHEM_GHOSE_FILTER>
1

>  <JCHEM_IUPAC>
7-chloro-3-hydroxy-1-methyl-5-phenyl-2,3-dihydro-1H-1,4-benzodiazepin-2-one

>  <ALOGPS_LOGP>
2.1600001

>  <JCHEM_LOGP>
2.7873468

>  <ALOGPS_LOGS>
-3.75

>  <JCHEM_MASS>
300.73999

>  <JCHEM_MDDR_LIKE_RULE>
0

>  <JCHEM_NUMBER_OF_RINGS>
3

>  <JCHEM_PHYSIOLOGICAL_CHARGE>
0

>  <JCHEM_PKA_STRONGEST_ACIDIC>
10.676493

>  <JCHEM_PKA_STRONGEST_BASIC>
-1.3993225

>  <JCHEM_POLAR_SURFACE_AREA>
52.900002

>  <JCHEM_REFRACTIVITY>
81.0103

>  <JCHEM_ROTATABLE_BOND_COUNT>
1

>  <JCHEM_RULE_OF_FIVE>
1

>  <ALOGPS_SOLUBILITY>
5.34e-02 g/l

>  <JCHEM_TRADITIONAL_IUPAC>
temazepam

>  <JCHEM_VEBER_RULE>
0

>  <DRUGBANK_ID>
DB00231

>  <DRUG_GROUPS>
approved

>  <GENERIC_NAME>
Temazepam

>  <BRANDS>
Euhypnos; Norkotral; Normison; Nortem; Remestan; Restoril; Temaze; Temtabs

$$$$
Methyclothiazide
 OpenBabel02121510022D

 20 21  0  0  1  0  0  0  0  0999 V2000
    1.6500    1.7110    0.0000 Cl  0  0  0  0  0  0  0  0  0  0  0  0
    5.9900    0.9060    0.0000 Cl  0  0  0  0  0  0  0  0  0  0  0  0
    3.0790   -0.7640    0.0000 S   0  0  0  0  0  0  0  0  0  0  0  0
    5.9900   -0.7840    0.0000 S   0  0  0  0  0  0  0  0  0  0  0  0
    3.4910   -1.4780    0.0000 O   0  0  0  0  0  0  0  0  0  0  0  0
    2.6660   -1.4780    0.0000 O   0  0  0  0  0  0  0  0  0  0  0  0
    6.4060   -0.0710    0.0000 O   0  0  0  0  0  0  0  0  0  0  0  0
    5.5750   -1.4970    0.0000 O   0  0  0  0  0  0  0  0  0  0  0  0
    2.3640   -0.3520    0.0000 N   0  0  0  0  0  0  0  0  0  0  0  0
    3.0790    0.8860    0.0000 N   0  0  0  0  0  0  0  0  0  0  0  0
    6.7030   -1.1990    0.0000 N   0  0  0  0  0  0  0  0  0  0  0  0
    2.3640    0.4730    0.0000 C   0  0  3  0  0  0  0  0  0  0  0  0
    3.7930   -0.3520    0.0000 C   0  0  0  0  0  0  0  0  0  0  0  0
    3.7930    0.4730    0.0000 C   0  0  0  0  0  0  0  0  0  0  0  0
    1.6500    0.8860    0.0000 C   0  0  0  0  0  0  0  0  0  0  0  0
    4.5300   -0.7930    0.0000 C   0  0  0  0  0  0  0  0  0  0  0  0
    1.6500   -0.7640    0.0000 C   0  0  0  0  0  0  0  0  0  0  0  0
    4.5300    0.9140    0.0000 C   0  0  0  0  0  0  0  0  0  0  0  0
    5.2780   -0.3690    0.0000 C   0  0  0  0  0  0  0  0  0  0  0  0
    5.2780    0.4900    0.0000 C   0  0  0  0  0  0  0  0  0  0  0  0
  1 15  1  0  0  0  0
  2 20  1  0  0  0  0
  3  5  2  0  0  0  0
  3  6  2  0  0  0  0
  3  9  1  0  0  0  0
  3 13  1  0  0  0  0
  4  7  2  0  0  0  0
  4  8  2  0  0  0  0
  4 11  1  0  0  0  0
  4 19  1  0  0  0  0
  9 12  1  0  0  0  0
  9 17  1  0  0  0  0
 10 12  1  0  0  0  0
 10 14  1  0  0  0  0
 12 15  1  0  0  0  0
 13 14  2  0  0  0  0
 13 16  1  0  0  0  0
 14 18  1  0  0  0  0
 16 19  2  0  0  0  0
 18 20  2  0  0  0  0
 19 20  1  0  0  0  0
M  END
>  <DATABASE_ID>
DB00232

>  <DATABASE_NAME>
drugbank

>  <SMILES>
Clc1cc2NC(N(S(=O)(=O)c2cc1S(=O)(=O)N)C)CCl

>  <INCHI_IDENTIFIER>
InChI=1S/C9H11Cl2N3O4S2/c1-14-9(4-10)13-6-2-5(11)7(19(12,15)16)3-8(6)20(14,17)18/h2-3,9,13H,4H2,1H3,(H2,12,15,16)

>  <INCHI_KEY>
InChIKey=CESYKOGBSMNBPD-UHFFFAOYSA-N

>  <JCHEM_ACCEPTOR_COUNT>
5

>  <JCHEM_AVERAGE_POLARIZABILITY>
31.653761

>  <JCHEM_BIOAVAILABILITY>
1

>  <JCHEM_DONOR_COUNT>
2

>  <JCHEM_EXACT_MASS>
358.95682

>  <JCHEM_FORMAL_CHARGE>
0

>  <JCHEM_FORMULA>
C9H11Cl2N3O4S2

>  <JCHEM_GHOSE_FILTER>
1

>  <JCHEM_IUPAC>
6-chloro-3-(chloromethyl)-2-methyl-1,1-dioxo-3,4-dihydro-2H-1$l^{6},2,4-benzothiadiazine-7-sulfonamide

>  <ALOGPS_LOGP>
0.93000001

>  <JCHEM_LOGP>
0.52832526

>  <ALOGPS_LOGS>
-2.6400001

>  <JCHEM_MASS>
360.237

>  <JCHEM_MDDR_LIKE_RULE>
0

>  <JCHEM_NUMBER_OF_RINGS>
2

>  <JCHEM_PHYSIOLOGICAL_CHARGE>
0

>  <JCHEM_PKA>
10.539645

>  <JCHEM_PKA_STRONGEST_ACIDIC>
9.291687

>  <JCHEM_PKA_STRONGEST_BASIC>
-3.3959296

>  <JCHEM_POLAR_SURFACE_AREA>
109.57

>  <JCHEM_REFRACTIVITY>
77.277702

>  <JCHEM_ROTATABLE_BOND_COUNT>
2

>  <JCHEM_RULE_OF_FIVE>
1

>  <ALOGPS_SOLUBILITY>
8.24e-01 g/l

>  <JCHEM_TRADITIONAL_IUPAC>
6-chloro-3-(chloromethyl)-2-methyl-1,1-dioxo-3,4-dihydro-1$l^{6},2,4-benzothiadiazine-7-sulfonamide

>  <JCHEM_VEBER_RULE>
0

>  <DRUGBANK_ID>
DB00232

>  <DRUG_GROUPS>
approved

>  <GENERIC_NAME>
Methyclothiazide

>  <BRANDS>
Aquatensen; Duretic; Enduron

$$$$
Aminosalicylic Acid
 OpenBabel02121510022D

 11 11  0  0  0  0  0  0  0  0999 V2000
    2.0930    0.4910    0.0000 O   0  0  0  0  0  0  0  0  0  0  0  0
    4.2360    1.7280    0.0000 O   0  0  0  0  0  0  0  0  0  0  0  0
    2.8080    1.7280    0.0000 O   0  0  0  0  0  0  0  0  0  0  0  0
    3.5220   -1.9840    0.0000 N   0  0  0  0  0  0  0  0  0  0  0  0
    3.5220    0.4910    0.0000 C   0  0  0  0  0  0  0  0  0  0  0  0
    2.8080    0.0780    0.0000 C   0  0  0  0  0  0  0  0  0  0  0  0
    3.5220   -1.1590    0.0000 C   0  0  0  0  0  0  0  0  0  0  0  0
    2.8080   -0.7470    0.0000 C   0  0  0  0  0  0  0  0  0  0  0  0
    4.2360    0.0780    0.0000 C   0  0  0  0  0  0  0  0  0  0  0  0
    4.2360   -0.7470    0.0000 C   0  0  0  0  0  0  0  0  0  0  0  0
    3.5220    1.3160    0.0000 C   0  0  0  0  0  0  0  0  0  0  0  0
  1  6  1  0  0  0  0
  2 11  1  0  0  0  0
  3 11  2  0  0  0  0
  4  7  1  0  0  0  0
  5  6  1  0  0  0  0
  5  9  2  0  0  0  0
  5 11  1  0  0  0  0
  6  8  2  0  0  0  0
  7  8  1  0  0  0  0
  7 10  2  0  0  0  0
  9 10  1  0  0  0  0
M  END
>  <DATABASE_ID>
DB00233

>  <DATABASE_NAME>
drugbank

>  <SMILES>
Oc1cc(N)ccc1C(O)=O

>  <INCHI_IDENTIFIER>
InChI=1S/C7H7NO3/c8-4-1-2-5(7(10)11)6(9)3-4/h1-3,9H,8H2,(H,10,11)

>  <INCHI_KEY>
InChIKey=WUBBRNOQWQTFEX-UHFFFAOYSA-N

>  <JCHEM_ACCEPTOR_COUNT>
4

>  <JCHEM_AVERAGE_POLARIZABILITY>
14.294652

>  <JCHEM_BIOAVAILABILITY>
1

>  <JCHEM_DONOR_COUNT>
3

>  <JCHEM_EXACT_MASS>
153.04259

>  <JCHEM_FORMAL_CHARGE>
0

>  <JCHEM_FORMULA>
C7H7NO3

>  <JCHEM_GHOSE_FILTER>
0

>  <JCHEM_IUPAC>
4-amino-2-hydroxybenzoic acid

>  <ALOGPS_LOGP>
0.62

>  <JCHEM_LOGP>
0.82507509

>  <ALOGPS_LOGS>
-1.11

>  <JCHEM_MASS>
153.13541

>  <JCHEM_MDDR_LIKE_RULE>
0

>  <JCHEM_NUMBER_OF_RINGS>
1

>  <JCHEM_PHYSIOLOGICAL_CHARGE>
-1

>  <JCHEM_PKA>
13.22369

>  <JCHEM_PKA_STRONGEST_ACIDIC>
3.6753502

>  <JCHEM_PKA_STRONGEST_BASIC>
2.1883175

>  <JCHEM_POLAR_SURFACE_AREA>
83.550003

>  <JCHEM_REFRACTIVITY>
39.995499

>  <JCHEM_ROTATABLE_BOND_COUNT>
1

>  <JCHEM_RULE_OF_FIVE>
1

>  <ALOGPS_SOLUBILITY>
1.18e+01 g/l

>  <JCHEM_TRADITIONAL_IUPAC>
aminosalicylic acid

>  <JCHEM_VEBER_RULE>
0

>  <DRUGBANK_ID>
DB00233

>  <DRUG_GROUPS>
approved

>  <GENERIC_NAME>
Aminosalicylic Acid

>  <SYNONYMS>
4-aminosalicylate; 4-aminosalicylic acid; p-aminosalicylic acid; para-amino salicylic acid; para-aminosalicylic acid; PAS

>  <BRANDS>
Pamisyl; Paser; Rexipas; Rezipas

>  <SALTS>
Aminosalicylate Sodium

$$$$
Reboxetine
 OpenBabel02121510022D

 24 26  0  0  1  0  0  0  0  0999 V2000
    5.2220   -1.4440    0.0000 O   0  0  0  0  0  0  0  0  0  0  0  0
    3.7940    0.2060    0.0000 O   0  0  0  0  0  0  0  0  0  0  0  0
    2.3640    1.0310    0.0000 O   0  0  0  0  0  0  0  0  0  0  0  0
    3.7940   -2.2690    0.0000 N   0  0  0  0  0  0  0  0  0  0  0  0
    4.5080   -1.0310    0.0000 C   0  0  2  0  0  0  0  0  0  0  0  0
    4.5080   -0.2060    0.0000 C   0  0  2  0  0  0  0  0  0  0  0  0
    3.7940   -1.4440    0.0000 C   0  0  0  0  0  0  0  0  0  0  0  0
    4.5080   -2.6810    0.0000 C   0  0  0  0  0  0  0  0  0  0  0  0
    5.2220   -2.2690    0.0000 C   0  0  0  0  0  0  0  0  0  0  0  0
    5.2220    0.2060    0.0000 C   0  0  0  0  0  0  0  0  0  0  0  0
    5.2220    1.0310    0.0000 C   0  0  0  0  0  0  0  0  0  0  0  0
    5.9370   -0.2060    0.0000 C   0  0  0  0  0  0  0  0  0  0  0  0
    3.7940    1.0310    0.0000 C   0  0  0  0  0  0  0  0  0  0  0  0
    5.9370    1.4440    0.0000 C   0  0  0  0  0  0  0  0  0  0  0  0
    6.6520    0.2060    0.0000 C   0  0  0  0  0  0  0  0  0  0  0  0
    3.0790    1.4440    0.0000 C   0  0  0  0  0  0  0  0  0  0  0  0
    6.6520    1.0310    0.0000 C   0  0  0  0  0  0  0  0  0  0  0  0
    4.5080    1.4440    0.0000 C   0  0  0  0  0  0  0  0  0  0  0  0
    3.0790    2.2690    0.0000 C   0  0  0  0  0  0  0  0  0  0  0  0
    4.5080    2.2690    0.0000 C   0  0  0  0  0  0  0  0  0  0  0  0
    3.7940    2.6810    0.0000 C   0  0  0  0  0  0  0  0  0  0  0  0
    1.6500    1.4440    0.0000 C   0  0  0  0  0  0  0  0  0  0  0  0
    1.6500    2.2690    0.0000 C   0  0  0  0  0  0  0  0  0  0  0  0
    5.0800   -0.7010    0.0000 H   0  0  0  0  0  0  0  0  0  0  0  0
  1  5  1  0  0  0  0
  1  9  1  0  0  0  0
  2 13  1  0  0  0  0
  3 16  1  0  0  0  0
  3 22  1  0  0  0  0
  4  7  1  0  0  0  0
  4  8  1  0  0  0  0
  5  6  1  0  0  0  0
  5  7  1  0  0  0  0
  5 24  1  6  0  0  0
  6  2  1  1  0  0  0
  6 10  1  0  0  0  0
  8  9  1  0  0  0  0
 10 11  2  0  0  0  0
 10 12  1  0  0  0  0
 11 14  1  0  0  0  0
 12 15  2  0  0  0  0
 13 16  1  0  0  0  0
 13 18  2  0  0  0  0
 14 17  2  0  0  0  0
 15 17  1  0  0  0  0
 16 19  2  0  0  0  0
 18 20  1  0  0  0  0
 19 21  1  0  0  0  0
 20 21  2  0  0  0  0
 22 23  1  0  0  0  0
M  END
>  <DATABASE_ID>
DB00234

>  <DATABASE_NAME>
drugbank

>  <SMILES>
O1CCNC[C@H]1[C@@H](Oc1ccccc1OCC)c1ccccc1

>  <INCHI_IDENTIFIER>
InChI=1S/C19H23NO3/c1-2-21-16-10-6-7-11-17(16)23-19(15-8-4-3-5-9-15)18-14-20-12-13-22-18/h3-11,18-20H,2,12-14H2,1H3/t18-,19-/m0/s1

>  <INCHI_KEY>
InChIKey=CBQGYUDMJHNJBX-OALUTQOASA-N

>  <JCHEM_ACCEPTOR_COUNT>
4

>  <JCHEM_AVERAGE_POLARIZABILITY>
34.173119

>  <JCHEM_BIOAVAILABILITY>
1

>  <JCHEM_DONOR_COUNT>
1

>  <JCHEM_EXACT_MASS>
313.16779

>  <JCHEM_FORMAL_CHARGE>
0

>  <JCHEM_FORMULA>
C19H23NO3

>  <JCHEM_GHOSE_FILTER>
1

>  <JCHEM_IUPAC>
(2S)-2-[(S)-2-ethoxyphenoxy(phenyl)methyl]morpholine

>  <ALOGPS_LOGP>
3.0599999

>  <JCHEM_LOGP>
3.2758145

>  <ALOGPS_LOGS>
-4.1500001

>  <JCHEM_MASS>
313.39081

>  <JCHEM_MDDR_LIKE_RULE>
1

>  <JCHEM_NUMBER_OF_RINGS>
3

>  <JCHEM_PHYSIOLOGICAL_CHARGE>
1

>  <JCHEM_PKA_STRONGEST_BASIC>
7.9105144

>  <JCHEM_POLAR_SURFACE_AREA>
39.720001

>  <JCHEM_REFRACTIVITY>
89.484901

>  <JCHEM_ROTATABLE_BOND_COUNT>
6

>  <JCHEM_RULE_OF_FIVE>
1

>  <ALOGPS_SOLUBILITY>
2.23e-02 g/l

>  <JCHEM_TRADITIONAL_IUPAC>
reboxetine

>  <JCHEM_VEBER_RULE>
1

>  <DRUGBANK_ID>
DB00234

>  <DRUG_GROUPS>
approved; investigational

>  <GENERIC_NAME>
Reboxetine

>  <BRANDS>
Davedax; Edronax; Norebox; Prolift; Solvex; Vestra

>  <SALTS>
Reboxetine methanesulfonate

$$$$
Nevirapine
 OpenBabel02121510022D

 20 23  0  0  1  0  0  0  0  0999 V2000
    4.7980    2.0450    0.0000 O   0  0  0  0  0  0  0  0  0  0  0  0
    4.0280   -0.5050    0.0000 N   0  0  0  0  0  0  0  0  0  0  0  0
    3.6160    1.3020    0.0000 N   0  0  0  0  0  0  0  0  0  0  0  0
    2.6640   -0.7420    0.0000 N   0  0  0  0  0  0  0  0  0  0  0  0
    5.3920   -0.7420    0.0000 N   0  0  0  0  0  0  0  0  0  0  0  0
    4.0280   -1.3300    0.0000 C   0  0  0  0  0  0  0  0  0  0  0  0
    3.6160   -2.0450    0.0000 C   0  0  0  0  0  0  0  0  0  0  0  0
    4.4410   -2.0450    0.0000 C   0  0  0  0  0  0  0  0  0  0  0  0
    3.2850   -0.1480    0.0000 C   0  0  0  0  0  0  0  0  0  0  0  0
    4.7710   -0.1480    0.0000 C   0  0  0  0  0  0  0  0  0  0  0  0
    3.1010    0.6570    0.0000 C   0  0  0  0  0  0  0  0  0  0  0  0
    4.9550    0.6570    0.0000 C   0  0  0  0  0  0  0  0  0  0  0  0
    2.2840    0.9230    0.0000 C   0  0  0  0  0  0  0  0  0  0  0  0
    4.4410    1.3020    0.0000 C   0  0  0  0  0  0  0  0  0  0  0  0
    5.7720    0.9220    0.0000 C   0  0  0  0  0  0  0  0  0  0  0  0
    1.6500    0.3430    0.0000 C   0  0  0  0  0  0  0  0  0  0  0  0
    1.8410   -0.4950    0.0000 C   0  0  0  0  0  0  0  0  0  0  0  0
    6.2150   -0.4950    0.0000 C   0  0  0  0  0  0  0  0  0  0  0  0
    2.1100    1.7290    0.0000 C   0  0  0  0  0  0  0  0  0  0  0  0
    6.4060    0.3430    0.0000 C   0  0  0  0  0  0  0  0  0  0  0  0
  1 14  2  0  0  0  0
  2  6  1  0  0  0  0
  2  9  1  0  0  0  0
  2 10  1  0  0  0  0
  3 11  1  0  0  0  0
  3 14  1  0  0  0  0
  4  9  1  0  0  0  0
  4 17  2  0  0  0  0
  5 10  1  0  0  0  0
  5 18  2  0  0  0  0
  6  7  1  0  0  0  0
  6  8  1  0  0  0  0
  7  8  1  0  0  0  0
  9 11  2  0  0  0  0
 10 12  2  0  0  0  0
 11 13  1  0  0  0  0
 12 14  1  0  0  0  0
 12 15  1  0  0  0  0
 13 16  2  0  0  0  0
 13 19  1  0  0  0  0
 15 20  2  0  0  0  0
 16 17  1  0  0  0  0
 18 20  1  0  0  0  0
M  END
>  <DATABASE_ID>
DB00238

>  <DATABASE_NAME>
drugbank

>  <SMILES>
O=C1Nc2c(nccc2C)N(c2ncccc12)C1CC1

>  <INCHI_IDENTIFIER>
InChI=1S/C15H14N4O/c1-9-6-8-17-14-12(9)18-15(20)11-3-2-7-16-13(11)19(14)10-4-5-10/h2-3,6-8,10H,4-5H2,1H3,(H,18,20)

>  <INCHI_KEY>
InChIKey=NQDJXKOVJZTUJA-UHFFFAOYSA-N

>  <JCHEM_ACCEPTOR_COUNT>
4

>  <JCHEM_AVERAGE_POLARIZABILITY>
27.799656

>  <JCHEM_BIOAVAILABILITY>
1

>  <JCHEM_DONOR_COUNT>
1

>  <JCHEM_EXACT_MASS>
266.11676

>  <JCHEM_FORMAL_CHARGE>
0

>  <JCHEM_FORMULA>
C15H14N4O

>  <JCHEM_GHOSE_FILTER>
1

>  <JCHEM_IUPAC>
2-cyclopropyl-7-methyl-2,4,9,15-tetraazatricyclo[9.4.0.0^{3,8}]pentadeca-1(15),3,5,7,11,13-hexaen-10-one

>  <ALOGPS_LOGP>
1.75

>  <JCHEM_LOGP>
2.4880428

>  <ALOGPS_LOGS>
-3.4100001

>  <JCHEM_MASS>
266.29791

>  <JCHEM_MDDR_LIKE_RULE>
0

>  <JCHEM_NUMBER_OF_RINGS>
4

>  <JCHEM_PHYSIOLOGICAL_CHARGE>
0

>  <JCHEM_PKA_STRONGEST_ACIDIC>
10.371185

>  <JCHEM_PKA_STRONGEST_BASIC>
5.0579209

>  <JCHEM_POLAR_SURFACE_AREA>
58.119999

>  <JCHEM_REFRACTIVITY>
77.482002

>  <JCHEM_ROTATABLE_BOND_COUNT>
1

>  <JCHEM_RULE_OF_FIVE>
1

>  <ALOGPS_SOLUBILITY>
1.05e-01 g/l

>  <JCHEM_TRADITIONAL_IUPAC>
nevirapine

>  <JCHEM_VEBER_RULE>
0

>  <DRUGBANK_ID>
DB00238

>  <DRUG_GROUPS>
approved

>  <GENERIC_NAME>
Nevirapine

>  <SYNONYMS>
NEV; NVP

>  <BRANDS>
Viramune; Viramune XR

$$$$
Butalbital
 OpenBabel02121510022D

 16 16  0  0  0  0  0  0  0  0999 V2000
    4.7290    0.1660    0.0000 O   0  0  0  0  0  0  0  0  0  0  0  0
    1.8710    0.1660    0.0000 O   0  0  0  0  0  0  0  0  0  0  0  0
    3.3000   -2.3090    0.0000 O   0  0  0  0  0  0  0  0  0  0  0  0
    4.0140   -1.0720    0.0000 N   0  0  0  0  0  0  0  0  0  0  0  0
    2.5860   -1.0720    0.0000 N   0  0  0  0  0  0  0  0  0  0  0  0
    3.3000    0.1660    0.0000 C   0  0  0  0  0  0  0  0  0  0  0  0
    3.7130    0.8800    0.0000 C   0  0  0  0  0  0  0  0  0  0  0  0
    3.3000    1.5950    0.0000 C   0  0  0  0  0  0  0  0  0  0  0  0
    2.8880    0.8800    0.0000 C   0  0  0  0  0  0  0  0  0  0  0  0
    4.0140   -0.2470    0.0000 C   0  0  0  0  0  0  0  0  0  0  0  0
    2.5860   -0.2470    0.0000 C   0  0  0  0  0  0  0  0  0  0  0  0
    2.4750    1.5950    0.0000 C   0  0  0  0  0  0  0  0  0  0  0  0
    3.7130    2.3090    0.0000 C   0  0  0  0  0  0  0  0  0  0  0  0
    2.0620    0.8800    0.0000 C   0  0  0  0  0  0  0  0  0  0  0  0
    3.3000   -1.4840    0.0000 C   0  0  0  0  0  0  0  0  0  0  0  0
    1.6500    1.5950    0.0000 C   0  0  0  0  0  0  0  0  0  0  0  0
  1 10  2  0  0  0  0
  2 11  2  0  0  0  0
  3 15  2  0  0  0  0
  4 10  1  0  0  0  0
  4 15  1  0  0  0  0
  5 11  1  0  0  0  0
  5 15  1  0  0  0  0
  6  7  1  0  0  0  0
  6  9  1  0  0  0  0
  6 10  1  0  0  0  0
  6 11  1  0  0  0  0
  7  8  1  0  0  0  0
  8 12  1  0  0  0  0
  8 13  1  0  0  0  0
  9 14  1  0  0  0  0
 14 16  2  0  0  0  0
M  END
>  <DATABASE_ID>
DB00241

>  <DATABASE_NAME>
drugbank

>  <SMILES>
O=C1NC(=O)NC(=O)C1(CC(C)C)CC=C

>  <INCHI_IDENTIFIER>
InChI=1S/C11H16N2O3/c1-4-5-11(6-7(2)3)8(14)12-10(16)13-9(11)15/h4,7H,1,5-6H2,2-3H3,(H2,12,13,14,15,16)

>  <INCHI_KEY>
InChIKey=UZVHFVZFNXBMQJ-UHFFFAOYSA-N

>  <JCHEM_ACCEPTOR_COUNT>
3

>  <JCHEM_AVERAGE_POLARIZABILITY>
22.42421

>  <JCHEM_BIOAVAILABILITY>
1

>  <JCHEM_DONOR_COUNT>
2

>  <JCHEM_EXACT_MASS>
224.11609

>  <JCHEM_FORMAL_CHARGE>
0

>  <JCHEM_FORMULA>
C11H16N2O3

>  <JCHEM_GHOSE_FILTER>
1

>  <JCHEM_IUPAC>
5-(2-methylpropyl)-5-(prop-2-en-1-yl)-1,3-diazinane-2,4,6-trione

>  <ALOGPS_LOGP>
1.47

>  <JCHEM_LOGP>
1.5892632

>  <ALOGPS_LOGS>
-2

>  <JCHEM_MASS>
224.2563

>  <JCHEM_MDDR_LIKE_RULE>
0

>  <JCHEM_NUMBER_OF_RINGS>
1

>  <JCHEM_PHYSIOLOGICAL_CHARGE>
0

>  <JCHEM_PKA>
12.151206

>  <JCHEM_PKA_STRONGEST_ACIDIC>
8.4813976

>  <JCHEM_POLAR_SURFACE_AREA>
75.269997

>  <JCHEM_REFRACTIVITY>
58.047001

>  <JCHEM_ROTATABLE_BOND_COUNT>
4

>  <JCHEM_RULE_OF_FIVE>
1

>  <ALOGPS_SOLUBILITY>
2.23e+00 g/l

>  <JCHEM_TRADITIONAL_IUPAC>
butalbital

>  <JCHEM_VEBER_RULE>
0

>  <DRUGBANK_ID>
DB00241

>  <DRUG_GROUPS>
approved; illicit

>  <GENERIC_NAME>
Butalbital

>  <SYNONYMS>
5-(2-methylpropyl)-5-prop-2-enyl-1,3-diazinane-2,4,6-trione; 5-Allyl-5-isobutyl-pyrimidine-2,4,6-trione; 5-isobutyl-5-allylbarbituric acid; allylbarbital; allylbarbitone

>  <BRANDS>
Sandoptal

$$$$
Ranolazine
 OpenBabel02121510022D

 31 33  0  0  1  0  0  0  0  0999 V2000
    5.9370    2.0620    0.0000 O   0  0  0  0  0  0  0  0  0  0  0  0
    7.3660    2.8880    0.0000 O   0  0  0  0  0  0  0  0  0  0  0  0
    4.5080   -2.0620    0.0000 O   0  0  0  0  0  0  0  0  0  0  0  0
    8.7950    2.0620    0.0000 O   0  0  0  0  0  0  0  0  0  0  0  0
    5.9370    0.4120    0.0000 N   0  0  0  0  0  0  0  0  0  0  0  0
    4.5080   -0.4120    0.0000 N   0  0  0  0  0  0  0  0  0  0  0  0
    3.0790   -2.0620    0.0000 N   0  0  0  0  0  0  0  0  0  0  0  0
    5.9370   -0.4120    0.0000 C   0  0  0  0  0  0  0  0  0  0  0  0
    5.2220    0.8250    0.0000 C   0  0  0  0  0  0  0  0  0  0  0  0
    5.2220   -0.8250    0.0000 C   0  0  0  0  0  0  0  0  0  0  0  0
    4.5080    0.4120    0.0000 C   0  0  0  0  0  0  0  0  0  0  0  0
    6.6520    0.8250    0.0000 C   0  0  0  0  0  0  0  0  0  0  0  0
    3.7940   -0.8250    0.0000 C   0  0  0  0  0  0  0  0  0  0  0  0
    6.6520    1.6500    0.0000 C   0  0  3  0  0  0  0  0  0  0  0  0
    7.3660    2.0620    0.0000 C   0  0  0  0  0  0  0  0  0  0  0  0
    3.7940   -1.6500    0.0000 C   0  0  0  0  0  0  0  0  0  0  0  0
    3.0790   -2.8880    0.0000 C   0  0  0  0  0  0  0  0  0  0  0  0
    8.0800    3.3000    0.0000 C   0  0  0  0  0  0  0  0  0  0  0  0
    3.7940   -3.3000    0.0000 C   0  0  0  0  0  0  0  0  0  0  0  0
    2.3640   -3.3000    0.0000 C   0  0  0  0  0  0  0  0  0  0  0  0
    3.7940   -4.1250    0.0000 C   0  0  0  0  0  0  0  0  0  0  0  0
    2.3640   -4.1250    0.0000 C   0  0  0  0  0  0  0  0  0  0  0  0
    8.7950    2.8880    0.0000 C   0  0  0  0  0  0  0  0  0  0  0  0
    4.5080   -2.8880    0.0000 C   0  0  0  0  0  0  0  0  0  0  0  0
    1.6500   -2.8880    0.0000 C   0  0  0  0  0  0  0  0  0  0  0  0
    8.0800    4.1250    0.0000 C   0  0  0  0  0  0  0  0  0  0  0  0
    3.0790   -4.5380    0.0000 C   0  0  0  0  0  0  0  0  0  0  0  0
    9.5090    3.3000    0.0000 C   0  0  0  0  0  0  0  0  0  0  0  0
    8.7950    4.5380    0.0000 C   0  0  0  0  0  0  0  0  0  0  0  0
    9.5090    4.1250    0.0000 C   0  0  0  0  0  0  0  0  0  0  0  0
    9.5090    1.6500    0.0000 C   0  0  0  0  0  0  0  0  0  0  0  0
  1 14  1  0  0  0  0
  2 15  1  0  0  0  0
  2 18  1  0  0  0  0
  3 16  2  0  0  0  0
  4 23  1  0  0  0  0
  4 31  1  0  0  0  0
  5  8  1  0  0  0  0
  5  9  1  0  0  0  0
  5 12  1  0  0  0  0
  6 10  1  0  0  0  0
  6 11  1  0  0  0  0
  6 13  1  0  0  0  0
  7 16  1  0  0  0  0
  7 17  1  0  0  0  0
  8 10  1  0  0  0  0
  9 11  1  0  0  0  0
 12 14  1  0  0  0  0
 13 16  1  0  0  0  0
 14 15  1  0  0  0  0
 17 19  2  0  0  0  0
 17 20  1  0  0  0  0
 18 23  2  0  0  0  0
 18 26  1  0  0  0  0
 19 21  1  0  0  0  0
 19 24  1  0  0  0  0
 20 22  2  0  0  0  0
 20 25  1  0  0  0  0
 21 27  2  0  0  0  0
 22 27  1  0  0  0  0
 23 28  1  0  0  0  0
 26 29  2  0  0  0  0
 28 30  2  0  0  0  0
 29 30  1  0  0  0  0
M  END
>  <DATABASE_ID>
DB00243

>  <DATABASE_NAME>
drugbank

>  <SMILES>
O(CC(O)CN1CCN(CC1)CC(=O)Nc1c(cccc1C)C)c1ccccc1OC

>  <INCHI_IDENTIFIER>
InChI=1S/C24H33N3O4/c1-18-7-6-8-19(2)24(18)25-23(29)16-27-13-11-26(12-14-27)15-20(28)17-31-22-10-5-4-9-21(22)30-3/h4-10,20,28H,11-17H2,1-3H3,(H,25,29)

>  <INCHI_KEY>
InChIKey=XKLMZUWKNUAPSZ-UHFFFAOYSA-N

>  <JCHEM_ACCEPTOR_COUNT>
6

>  <JCHEM_AVERAGE_POLARIZABILITY>
47.218136

>  <JCHEM_BIOAVAILABILITY>
1

>  <JCHEM_DONOR_COUNT>
2

>  <JCHEM_EXACT_MASS>
427.2471

>  <JCHEM_FORMAL_CHARGE>
0

>  <JCHEM_FORMULA>
C24H33N3O4

>  <JCHEM_GHOSE_FILTER>
1

>  <JCHEM_IUPAC>
N-(2,6-dimethylphenyl)-2-{4-[2-hydroxy-3-(2-methoxyphenoxy)propyl]piperazin-1-yl}acetamide

>  <ALOGPS_LOGP>
2.0799999

>  <JCHEM_LOGP>
2.8324604

>  <ALOGPS_LOGS>
-3.5899999

>  <JCHEM_MASS>
427.5365

>  <JCHEM_MDDR_LIKE_RULE>
1

>  <JCHEM_NUMBER_OF_RINGS>
3

>  <JCHEM_PHYSIOLOGICAL_CHARGE>
1

>  <JCHEM_PKA>
14.254039

>  <JCHEM_PKA_STRONGEST_ACIDIC>
13.600031

>  <JCHEM_PKA_STRONGEST_BASIC>
7.1653461

>  <JCHEM_POLAR_SURFACE_AREA>
74.269997

>  <JCHEM_REFRACTIVITY>
123.4604

>  <JCHEM_ROTATABLE_BOND_COUNT>
9

>  <JCHEM_RULE_OF_FIVE>
1

>  <ALOGPS_SOLUBILITY>
1.10e-01 g/l

>  <JCHEM_TRADITIONAL_IUPAC>
ranolazine

>  <JCHEM_VEBER_RULE>
0

>  <DRUGBANK_ID>
DB00243

>  <DRUG_GROUPS>
approved; investigational

>  <GENERIC_NAME>
Ranolazine

>  <BRANDS>
Ranexa

>  <SALTS>
Ranolazine Dihydrochloride

$$$$
Mesalazine
 OpenBabel02121510022D

 11 11  0  0  0  0  0  0  0  0999 V2000
    2.0930    0.2060    0.0000 O   0  0  0  0  0  0  0  0  0  0  0  0
    4.2360    1.4440    0.0000 O   0  0  0  0  0  0  0  0  0  0  0  0
    2.8080    1.4440    0.0000 O   0  0  0  0  0  0  0  0  0  0  0  0
    4.9510   -1.4440    0.0000 N   0  0  0  0  0  0  0  0  0  0  0  0
    3.5220    0.2060    0.0000 C   0  0  0  0  0  0  0  0  0  0  0  0
    4.2360   -1.0310    0.0000 C   0  0  0  0  0  0  0  0  0  0  0  0
    4.2360   -0.2060    0.0000 C   0  0  0  0  0  0  0  0  0  0  0  0
    2.8080   -0.2060    0.0000 C   0  0  0  0  0  0  0  0  0  0  0  0
    3.5220   -1.4440    0.0000 C   0  0  0  0  0  0  0  0  0  0  0  0
    2.8080   -1.0310    0.0000 C   0  0  0  0  0  0  0  0  0  0  0  0
    3.5220    1.0310    0.0000 C   0  0  0  0  0  0  0  0  0  0  0  0
  1  8  1  0  0  0  0
  2 11  1  0  0  0  0
  3 11  2  0  0  0  0
  4  6  1  0  0  0  0
  5  7  2  0  0  0  0
  5  8  1  0  0  0  0
  5 11  1  0  0  0  0
  6  7  1  0  0  0  0
  6  9  2  0  0  0  0
  8 10  2  0  0  0  0
  9 10  1  0  0  0  0
M  END
>  <DATABASE_ID>
DB00244

>  <DATABASE_NAME>
drugbank

>  <SMILES>
Oc1ccc(N)cc1C(O)=O

>  <INCHI_IDENTIFIER>
InChI=1S/C7H7NO3/c8-4-1-2-6(9)5(3-4)7(10)11/h1-3,9H,8H2,(H,10,11)

>  <INCHI_KEY>
InChIKey=KBOPZPXVLCULAV-UHFFFAOYSA-N

>  <JCHEM_ACCEPTOR_COUNT>
4

>  <JCHEM_AVERAGE_POLARIZABILITY>
14.26382

>  <JCHEM_BIOAVAILABILITY>
1

>  <JCHEM_DONOR_COUNT>
3

>  <JCHEM_EXACT_MASS>
153.04259

>  <JCHEM_FORMAL_CHARGE>
0

>  <JCHEM_FORMULA>
C7H7NO3

>  <JCHEM_GHOSE_FILTER>
0

>  <JCHEM_IUPAC>
5-amino-2-hydroxybenzoic acid

>  <ALOGPS_LOGP>
0.75

>  <JCHEM_LOGP>
-0.2897824

>  <ALOGPS_LOGS>
-1.1

>  <JCHEM_MASS>
153.13541

>  <JCHEM_MDDR_LIKE_RULE>
0

>  <JCHEM_NUMBER_OF_RINGS>
1

>  <JCHEM_PHYSIOLOGICAL_CHARGE>
-1

>  <JCHEM_PKA>
15.475226

>  <JCHEM_PKA_STRONGEST_ACIDIC>
2.0241883

>  <JCHEM_PKA_STRONGEST_BASIC>
5.8715878

>  <JCHEM_POLAR_SURFACE_AREA>
83.550003

>  <JCHEM_REFRACTIVITY>
39.995499

>  <JCHEM_ROTATABLE_BOND_COUNT>
1

>  <JCHEM_RULE_OF_FIVE>
1

>  <ALOGPS_SOLUBILITY>
1.22e+01 g/l

>  <JCHEM_TRADITIONAL_IUPAC>
mesalazine

>  <JCHEM_VEBER_RULE>
0

>  <DRUGBANK_ID>
DB00244

>  <DRUG_GROUPS>
approved

>  <GENERIC_NAME>
Mesalazine

>  <SYNONYMS>
3-carboxy-4-hydroxyaniline; 5-aminosalicylic acid; 5-ASA; m-Aminosalicylic acid; Mesalamine

>  <BRANDS>
APRISO; Asacol; Asacolitin; Canasa; Claversal; Delzicol; Fisalamine; Lixacol; Mesasal; Pentasa; Rowasa; Salofalk

$$$$
Benzatropine
 OpenBabel02121510022D

 26 29  0  0  1  0  0  0  0  0999 V2000
    5.0930   -5.5520    0.0000 C   0  0  1  0  0  0  0  0  0  0  0  0
    6.1820   -6.3700    0.0000 C   0  0  3  0  0  0  0  0  0  0  0  0
    5.6600   -5.9350    0.0000 C   0  0  0  0  0  0  0  0  0  0  0  0
    4.6660   -5.9350    0.0000 C   0  0  1  0  0  0  0  0  0  0  0  0
    4.5220   -5.1060    0.0000 N   0  0  0  0  0  0  0  0  0  0  0  0
    5.9600   -5.5700    0.0000 C   0  0  0  0  0  0  0  0  0  0  0  0
    4.1350   -6.6590    0.0000 C   0  0  0  0  0  0  0  0  0  0  0  0
    4.7670   -6.2760    0.0000 C   0  0  0  0  0  0  0  0  0  0  0  0
    6.8700   -7.5360    0.0000 C   0  0  0  0  0  0  0  0  0  0  0  0
    6.1600   -7.1610    0.0000 O   0  0  0  0  0  0  0  0  0  0  0  0
    3.8600   -5.7120    0.0000 H   0  0  0  0  0  0  0  0  0  0  0  0
    5.5020   -4.8310    0.0000 H   0  0  0  0  0  0  0  0  0  0  0  0
    7.5680   -7.0980    0.0000 C   0  0  0  0  0  0  0  0  0  0  0  0
    6.9000   -8.3610    0.0000 C   0  0  0  0  0  0  0  0  0  0  0  0
    8.2970   -7.4870    0.0000 C   0  0  0  0  0  0  0  0  0  0  0  0
    8.9950   -7.0490    0.0000 C   0  0  0  0  0  0  0  0  0  0  0  0
    8.9650   -6.2230    0.0000 C   0  0  0  0  0  0  0  0  0  0  0  0
    8.2310   -5.8380    0.0000 C   0  0  0  0  0  0  0  0  0  0  0  0
    7.5360   -6.2780    0.0000 C   0  0  0  0  0  0  0  0  0  0  0  0
    6.2020   -8.7960    0.0000 C   0  0  0  0  0  0  0  0  0  0  0  0
    6.2320   -9.6200    0.0000 C   0  0  0  0  0  0  0  0  0  0  0  0
    6.9620  -10.0070    0.0000 C   0  0  0  0  0  0  0  0  0  0  0  0
    7.6630   -9.5640    0.0000 C   0  0  0  0  0  0  0  0  0  0  0  0
    7.6290   -8.7410    0.0000 C   0  0  0  0  0  0  0  0  0  0  0  0
    4.0970   -4.3980    0.0000 C   0  0  0  0  0  0  0  0  0  0  0  0
    6.8970   -5.9580    0.0000 H   0  0  0  0  0  0  0  0  0  0  0  0
  1  5  1  0  0  0  0
  1  6  1  0  0  0  0
  1  8  1  0  0  0  0
  1 12  1  6  0  0  0
  2  3  1  0  0  0  0
  2  6  1  0  0  0  0
  2 10  1  0  0  0  0
  2 26  1  0  0  0  0
  3  4  1  0  0  0  0
  4  5  1  0  0  0  0
  4  7  1  0  0  0  0
  4 11  1  1  0  0  0
  5 25  1  0  0  0  0
  7  8  1  0  0  0  0
  9 10  1  0  0  0  0
  9 13  1  0  0  0  0
  9 14  1  0  0  0  0
 13 15  1  0  0  0  0
 13 19  2  0  0  0  0
 14 20  1  0  0  0  0
 14 24  2  0  0  0  0
 15 16  2  0  0  0  0
 16 17  1  0  0  0  0
 17 18  2  0  0  0  0
 18 19  1  0  0  0  0
 20 21  2  0  0  0  0
 21 22  1  0  0  0  0
 22 23  2  0  0  0  0
 23 24  1  0  0  0  0
M  END
>  <DATABASE_ID>
DB00245

>  <DATABASE_NAME>
drugbank

>  <SMILES>
O(C(c1ccccc1)c1ccccc1)C1C[C@@H]2N([C@H](C1)CC2)C

>  <INCHI_IDENTIFIER>
InChI=1S/C21H25NO/c1-22-18-12-13-19(22)15-20(14-18)23-21(16-8-4-2-5-9-16)17-10-6-3-7-11-17/h2-11,18-21H,12-15H2,1H3/t18-,19+,20+

>  <INCHI_KEY>
InChIKey=GIJXKZJWITVLHI-PMOLBWCYSA-N

>  <JCHEM_ACCEPTOR_COUNT>
2

>  <JCHEM_AVERAGE_POLARIZABILITY>
35.415825

>  <JCHEM_BIOAVAILABILITY>
1

>  <JCHEM_DONOR_COUNT>
0

>  <JCHEM_EXACT_MASS>
307.1936

>  <JCHEM_FORMAL_CHARGE>
0

>  <JCHEM_FORMULA>
C21H25NO

>  <JCHEM_GHOSE_FILTER>
1

>  <JCHEM_IUPAC>
(1R,3R,5S)-3-(diphenylmethoxy)-8-methyl-8-azabicyclo[3.2.1]octane

>  <ALOGPS_LOGP>
4.4699998

>  <JCHEM_LOGP>
4.1854005

>  <ALOGPS_LOGS>
-5.4099998

>  <JCHEM_MASS>
307.42929

>  <JCHEM_MDDR_LIKE_RULE>
0

>  <JCHEM_NUMBER_OF_RINGS>
4

>  <JCHEM_PHYSIOLOGICAL_CHARGE>
1

>  <JCHEM_PKA_STRONGEST_BASIC>
9.5432711

>  <JCHEM_POLAR_SURFACE_AREA>
12.47

>  <JCHEM_REFRACTIVITY>
94.240402

>  <JCHEM_ROTATABLE_BOND_COUNT>
4

>  <JCHEM_RULE_OF_FIVE>
1

>  <ALOGPS_SOLUBILITY>
1.21e-03 g/l

>  <JCHEM_TRADITIONAL_IUPAC>
benztropine

>  <JCHEM_VEBER_RULE>
1

>  <DRUGBANK_ID>
DB00245

>  <DRUG_GROUPS>
approved

>  <GENERIC_NAME>
Benzatropine

>  <SYNONYMS>
3-alpha-(diphenylmethoxy)tropane; 3endo-benzhydryloxytropane; 3α-(diphenylmethoxy)-1αH,5αH-tropane; 3α-(diphenylmethoxy)tropane; 3α-benzhydryloxy-8-methyl-8-azabicyclo[3.2.1]octane; Benzatropina; Benzatropinum; Benztropine; Tropine Benzohydryl Ether

>  <BRANDS>
Apo-Benztropine; Cogentin; Cogentinol; PMS Benztropine

>  <SALTS>
Benzatropine mesylate

$$$$
Ziprasidone
 OpenBabel02121510022D

 28 32  0  0  0  0  0  0  0  0999 V2000
    5.8070    3.0920    0.0000 Cl  0  0  0  0  0  0  0  0  0  0  0  0
    1.6500   -1.3070    0.0000 S   0  0  0  0  0  0  0  0  0  0  0  0
   10.0380    2.2670    0.0000 O   0  0  0  0  0  0  0  0  0  0  0  0
    5.0930    0.2040    0.0000 N   0  0  0  0  0  0  0  0  0  0  0  0
    3.6640   -0.6200    0.0000 N   0  0  0  0  0  0  0  0  0  0  0  0
    2.2000   -0.6990    0.0000 N   0  0  0  0  0  0  0  0  0  0  0  0
    8.7310    2.9310    0.0000 N   0  0  0  0  0  0  0  0  0  0  0  0
    5.0930   -0.6200    0.0000 C   0  0  0  0  0  0  0  0  0  0  0  0
    4.3780    0.6170    0.0000 C   0  0  0  0  0  0  0  0  0  0  0  0
    4.3780   -1.0330    0.0000 C   0  0  0  0  0  0  0  0  0  0  0  0
    3.6640    0.2040    0.0000 C   0  0  0  0  0  0  0  0  0  0  0  0
    5.8070    0.6170    0.0000 C   0  0  0  0  0  0  0  0  0  0  0  0
    5.8070    1.4420    0.0000 C   0  0  0  0  0  0  0  0  0  0  0  0
    2.9490   -1.0330    0.0000 C   0  0  0  0  0  0  0  0  0  0  0  0
    6.5220    1.8550    0.0000 C   0  0  0  0  0  0  0  0  0  0  0  0
    2.8640   -1.8490    0.0000 C   0  0  0  0  0  0  0  0  0  0  0  0
    7.9510    1.8550    0.0000 C   0  0  0  0  0  0  0  0  0  0  0  0
    7.2360    1.4420    0.0000 C   0  0  0  0  0  0  0  0  0  0  0  0
    7.9510    2.6800    0.0000 C   0  0  0  0  0  0  0  0  0  0  0  0
    6.5220    2.6800    0.0000 C   0  0  0  0  0  0  0  0  0  0  0  0
    8.7310    1.6030    0.0000 C   0  0  0  0  0  0  0  0  0  0  0  0
    2.0570   -2.0190    0.0000 C   0  0  0  0  0  0  0  0  0  0  0  0
    7.2360    3.0920    0.0000 C   0  0  0  0  0  0  0  0  0  0  0  0
    9.2130    2.2670    0.0000 C   0  0  0  0  0  0  0  0  0  0  0  0
    3.4150   -2.4630    0.0000 C   0  0  0  0  0  0  0  0  0  0  0  0
    1.8010   -2.8030    0.0000 C   0  0  0  0  0  0  0  0  0  0  0  0
    3.1590   -3.2470    0.0000 C   0  0  0  0  0  0  0  0  0  0  0  0
    2.3520   -3.4170    0.0000 C   0  0  0  0  0  0  0  0  0  0  0  0
  1 20  1  0  0  0  0
  2  6  1  0  0  0  0
  2 22  1  0  0  0  0
  3 24  2  0  0  0  0
  4  8  1  0  0  0  0
  4  9  1  0  0  0  0
  4 12  1  0  0  0  0
  5 10  1  0  0  0  0
  5 11  1  0  0  0  0
  5 14  1  0  0  0  0
  6 14  2  0  0  0  0
  7 19  1  0  0  0  0
  7 24  1  0  0  0  0
  8 10  1  0  0  0  0
  9 11  1  0  0  0  0
 12 13  1  0  0  0  0
 13 15  1  0  0  0  0
 14 16  1  0  0  0  0
 15 18  2  0  0  0  0
 15 20  1  0  0  0  0
 16 22  2  0  0  0  0
 16 25  1  0  0  0  0
 17 18  1  0  0  0  0
 17 19  2  0  0  0  0
 17 21  1  0  0  0  0
 19 23  1  0  0  0  0
 20 23  2  0  0  0  0
 21 24  1  0  0  0  0
 22 26  1  0  0  0  0
 25 27  2  0  0  0  0
 26 28  2  0  0  0  0
 27 28  1  0  0  0  0
M  END
>  <DATABASE_ID>
DB00246

>  <DATABASE_NAME>
drugbank

>  <SMILES>
Clc1cc2NC(=O)Cc2cc1CCN1CCN(CC1)c1nsc2c1cccc2

>  <INCHI_IDENTIFIER>
InChI=1S/C21H21ClN4OS/c22-17-13-18-15(12-20(27)23-18)11-14(17)5-6-25-7-9-26(10-8-25)21-16-3-1-2-4-19(16)28-24-21/h1-4,11,13H,5-10,12H2,(H,23,27)

>  <INCHI_KEY>
InChIKey=MVWVFYHBGMAFLY-UHFFFAOYSA-N

>  <JCHEM_ACCEPTOR_COUNT>
4

>  <JCHEM_AVERAGE_POLARIZABILITY>
44.957096

>  <JCHEM_BIOAVAILABILITY>
1

>  <JCHEM_DONOR_COUNT>
1

>  <JCHEM_EXACT_MASS>
412.11246

>  <JCHEM_FORMAL_CHARGE>
0

>  <JCHEM_FORMULA>
C21H21ClN4OS

>  <JCHEM_GHOSE_FILTER>
1

>  <JCHEM_IUPAC>
5-{2-[4-(1,2-benzothiazol-3-yl)piperazin-1-yl]ethyl}-6-chloro-2,3-dihydro-1H-indol-2-one

>  <ALOGPS_LOGP>
4.6399999

>  <JCHEM_LOGP>
4.3040466

>  <ALOGPS_LOGS>
-4.7600002

>  <JCHEM_MASS>
412.936

>  <JCHEM_MDDR_LIKE_RULE>
0

>  <JCHEM_NUMBER_OF_RINGS>
5

>  <JCHEM_PHYSIOLOGICAL_CHARGE>
1

>  <JCHEM_PKA>
14.88613

>  <JCHEM_PKA_STRONGEST_ACIDIC>
13.181678

>  <JCHEM_PKA_STRONGEST_BASIC>
7.0878563

>  <JCHEM_POLAR_SURFACE_AREA>
48.470001

>  <JCHEM_REFRACTIVITY>
116.7248

>  <JCHEM_ROTATABLE_BOND_COUNT>
4

>  <JCHEM_RULE_OF_FIVE>
1

>  <ALOGPS_SOLUBILITY>
7.18e-03 g/l

>  <JCHEM_TRADITIONAL_IUPAC>
ziprasidone

>  <JCHEM_VEBER_RULE>
0

>  <DRUGBANK_ID>
DB00246

>  <DRUG_GROUPS>
approved

>  <GENERIC_NAME>
Ziprasidone

>  <BRANDS>
Geodon; Zeldox

>  <SALTS>
Ziprasidone hydrochloride; Ziprasidone mesylate trihydrate

$$$$
Methysergide
 OpenBabel02121510022D

 27 30  0  0  1  0  0  0  0  0999 V2000
   -3.6240    0.0880    0.0000 C   0  0  0  0  0  0  0  0  0  0  0  0
   -4.3390   -0.3240    0.0000 C   0  0  0  0  0  0  0  0  0  0  0  0
   -4.3390   -1.1490    0.0000 C   0  0  0  0  0  0  0  0  0  0  0  0
   -3.6240   -1.5620    0.0000 C   0  0  0  0  0  0  0  0  0  0  0  0
   -2.9100   -1.1490    0.0000 C   0  0  0  0  0  0  0  0  0  0  0  0
   -2.9100   -0.3240    0.0000 C   0  0  0  0  0  0  0  0  0  0  0  0
   -2.1950    0.0880    0.0000 C   0  0  0  0  0  0  0  0  0  0  0  0
   -2.1950   -1.5620    0.0000 C   0  0  0  0  0  0  0  0  0  0  0  0
   -1.4810   -1.1490    0.0000 C   0  0  0  0  0  0  0  0  0  0  0  0
   -1.4810   -0.3240    0.0000 C   0  0  1  0  0  0  0  0  0  0  0  0
   -1.4810    1.3260    0.0000 C   0  0  2  0  0  0  0  0  0  0  0  0
   -2.1950    0.9130    0.0000 C   0  0  0  0  0  0  0  0  0  0  0  0
   -0.7660    0.0880    0.0000 N   0  0  0  0  0  0  0  0  0  0  0  0
   -0.7660    0.9130    0.0000 C   0  0  0  0  0  0  0  0  0  0  0  0
   -2.4090   -2.3580    0.0000 C   0  0  0  0  0  0  0  0  0  0  0  0
   -3.4110   -2.3580    0.0000 N   0  0  0  0  0  0  0  0  0  0  0  0
   -0.7660   -0.7370    0.0000 H   0  0  0  0  0  0  0  0  0  0  0  0
   -1.4810    2.1510    0.0000 C   0  0  0  0  0  0  0  0  0  0  0  0
   -0.0520   -0.3240    0.0000 C   0  0  0  0  0  0  0  0  0  0  0  0
   -0.7660    2.5630    0.0000 N   0  0  0  0  0  0  0  0  0  0  0  0
   -0.0520    2.1510    0.0000 C   0  0  3  0  0  0  0  0  0  0  0  0
    0.6630    2.5630    0.0000 C   0  0  0  0  0  0  0  0  0  0  0  0
    1.3770    2.1510    0.0000 C   0  0  0  0  0  0  0  0  0  0  0  0
   -2.1950    2.5630    0.0000 O   0  0  0  0  0  0  0  0  0  0  0  0
   -0.0520    1.3260    0.0000 C   0  0  0  0  0  0  0  0  0  0  0  0
    0.6630    0.9130    0.0000 O   0  0  0  0  0  0  0  0  0  0  0  0
   -3.8230   -3.0730    0.0000 C   0  0  0  0  0  0  0  0  0  0  0  0
  1  2  2  0  0  0  0
  1  6  1  0  0  0  0
  2  3  1  0  0  0  0
  3  4  2  0  0  0  0
  4  5  1  0  0  0  0
  4 16  1  0  0  0  0
  5  6  2  0  0  0  0
  5  8  1  0  0  0  0
  6  7  1  0  0  0  0
  7 10  1  0  0  0  0
  7 12  2  0  0  0  0
  8  9  1  0  0  0  0
  8 15  2  0  0  0  0
  9 10  1  0  0  0  0
 10 13  1  0  0  0  0
 10 17  1  1  0  0  0
 11 12  1  0  0  0  0
 11 14  1  0  0  0  0
 11 18  1  1  0  0  0
 13 14  1  0  0  0  0
 13 19  1  0  0  0  0
 15 16  1  0  0  0  0
 16 27  1  0  0  0  0
 18 20  1  0  0  0  0
 18 24  2  0  0  0  0
 20 21  1  0  0  0  0
 21 22  1  0  0  0  0
 21 25  1  0  0  0  0
 22 23  1  0  0  0  0
 25 26  1  0  0  0  0
M  END
>  <DATABASE_ID>
DB00247

>  <DATABASE_NAME>
drugbank

>  <SMILES>
OCC(NC(=O)[C@@H]1C=C2[C@H](N(C1)C)Cc1c3c2cccc3n(c1)C)CC

>  <INCHI_IDENTIFIER>
InChI=1S/C21H27N3O2/c1-4-15(12-25)22-21(26)14-8-17-16-6-5-7-18-20(16)13(10-23(18)2)9-19(17)24(3)11-14/h5-8,10,14-15,19,25H,4,9,11-12H2,1-3H3,(H,22,26)/t14-,15?,19-/m1/s1

>  <INCHI_KEY>
InChIKey=KPJZHOPZRAFDTN-NQUBZZJWSA-N

>  <JCHEM_ACCEPTOR_COUNT>
3

>  <JCHEM_AVERAGE_POLARIZABILITY>
40.406639

>  <JCHEM_BIOAVAILABILITY>
1

>  <JCHEM_DONOR_COUNT>
2

>  <JCHEM_EXACT_MASS>
353.21033

>  <JCHEM_FORMAL_CHARGE>
0

>  <JCHEM_FORMULA>
C21H27N3O2

>  <JCHEM_GHOSE_FILTER>
1

>  <JCHEM_IUPAC>
(4R,7R)-N-(1-hydroxybutan-2-yl)-6,11-dimethyl-6,11-diazatetracyclo[7.6.1.0^{2,7}.0^{12,16}]hexadeca-1(16),2,9,12,14-pentaene-4-carboxamide

>  <ALOGPS_LOGP>
2.22

>  <JCHEM_LOGP>
1.8168944

>  <ALOGPS_LOGS>
-3.2

>  <JCHEM_MASS>
353.45801

>  <JCHEM_MDDR_LIKE_RULE>
0

>  <JCHEM_NUMBER_OF_RINGS>
4

>  <JCHEM_PHYSIOLOGICAL_CHARGE>
1

>  <JCHEM_PKA>
15.999869

>  <JCHEM_PKA_STRONGEST_ACIDIC>
15.006512

>  <JCHEM_PKA_STRONGEST_BASIC>
7.8543887

>  <JCHEM_POLAR_SURFACE_AREA>
57.5

>  <JCHEM_REFRACTIVITY>
104.4726

>  <JCHEM_ROTATABLE_BOND_COUNT>
4

>  <JCHEM_RULE_OF_FIVE>
1

>  <ALOGPS_SOLUBILITY>
2.24e-01 g/l

>  <JCHEM_TRADITIONAL_IUPAC>
(4R,7R)-N-(1-hydroxybutan-2-yl)-6,11-dimethyl-6,11-diazatetracyclo[7.6.1.0^{2,7}.0^{12,16}]hexadeca-1(16),2,9,12,14-pentaene-4-carboxamide

>  <JCHEM_VEBER_RULE>
0

>  <DRUGBANK_ID>
DB00247

>  <DRUG_GROUPS>
approved

>  <GENERIC_NAME>
Methysergide

>  <SYNONYMS>
1-Methyllysergic acid butanolamide; Methysergidum; Metisergido; N-(1-(Hydroxymethyl)propyl)-1-methyl-dextro-(+)-lysergamide

>  <BRANDS>
Deseril; Desernil; Sansert

>  <SALTS>
Methysergide maleate

$$$$
Cabergoline
 OpenBabel02121510022D

 35 38  0  0  1  0  0  0  0  0999 V2000
    2.3790   -0.1480    0.0000 O   0  0  0  0  0  0  0  0  0  0  0  0
    1.6600    1.0860    0.0000 O   0  0  0  0  0  0  0  0  0  0  0  0
    5.2930   -0.1490    0.0000 N   0  0  0  0  0  0  0  0  0  0  0  0
    6.2680   -3.5450    0.0000 N   0  0  0  0  0  0  0  0  0  0  0  0
    3.0880    1.0920    0.0000 N   0  0  0  0  0  0  0  0  0  0  0  0
    2.3690    2.3270    0.0000 N   0  0  0  0  0  0  0  0  0  0  0  0
    4.5080    3.5720    0.0000 N   0  0  0  0  0  0  0  0  0  0  0  0
    4.5650   -1.4200    0.0000 C   0  0  2  0  0  0  0  0  0  0  0  0
    5.2800   -1.0080    0.0000 C   0  0  1  0  0  0  0  0  0  0  0  0
    3.8140   -1.0020    0.0000 C   0  0  0  0  0  0  0  0  0  0  0  0
    3.8080   -0.1430    0.0000 C   0  0  2  0  0  0  0  0  0  0  0  0
    5.9940   -1.4200    0.0000 C   0  0  0  0  0  0  0  0  0  0  0  0
    4.5520    0.2870    0.0000 C   0  0  0  0  0  0  0  0  0  0  0  0
    4.5650   -2.2450    0.0000 C   0  0  0  0  0  0  0  0  0  0  0  0
    5.2800   -2.6580    0.0000 C   0  0  0  0  0  0  0  0  0  0  0  0
    5.9940   -2.2450    0.0000 C   0  0  0  0  0  0  0  0  0  0  0  0
    6.0120    0.2560    0.0000 C   0  0  0  0  0  0  0  0  0  0  0  0
    3.0920    0.2670    0.0000 C   0  0  0  0  0  0  0  0  0  0  0  0
    5.2930   -3.5170    0.0000 C   0  0  0  0  0  0  0  0  0  0  0  0
    3.8140   -2.6640    0.0000 C   0  0  0  0  0  0  0  0  0  0  0  0
    6.6020   -2.7960    0.0000 C   0  0  0  0  0  0  0  0  0  0  0  0
    4.5520   -3.9520    0.0000 C   0  0  0  0  0  0  0  0  0  0  0  0
    3.8080   -3.5230    0.0000 C   0  0  0  0  0  0  0  0  0  0  0  0
    6.0220    1.0810    0.0000 C   0  0  0  0  0  0  0  0  0  0  0  0
    3.8010    1.5070    0.0000 C   0  0  0  0  0  0  0  0  0  0  0  0
    2.3720    1.5020    0.0000 C   0  0  0  0  0  0  0  0  0  0  0  0
    3.7980    2.3320    0.0000 C   0  0  0  0  0  0  0  0  0  0  0  0
    6.7410    1.4850    0.0000 C   0  0  0  0  0  0  0  0  0  0  0  0
    4.5110    2.7470    0.0000 C   0  0  0  0  0  0  0  0  0  0  0  0
    1.6530    2.7360    0.0000 C   0  0  0  0  0  0  0  0  0  0  0  0
    5.2210    3.9880    0.0000 C   0  0  0  0  0  0  0  0  0  0  0  0
    3.7920    3.9820    0.0000 C   0  0  0  0  0  0  0  0  0  0  0  0
    1.6500    3.5610    0.0000 C   0  0  0  0  0  0  0  0  0  0  0  0
    3.9960   -1.7550    0.0000 H   0  0  0  0  0  0  0  0  0  0  0  0
    5.8540   -0.6820    0.0000 H   0  0  0  0  0  0  0  0  0  0  0  0
  1 18  2  0  0  0  0
  2 26  2  0  0  0  0
  3  9  1  0  0  0  0
  3 13  1  0  0  0  0
  3 17  1  0  0  0  0
  4 19  1  0  0  0  0
  4 21  1  0  0  0  0
  5 18  1  0  0  0  0
  5 25  1  0  0  0  0
  5 26  1  0  0  0  0
  6 26  1  0  0  0  0
  6 30  1  0  0  0  0
  7 29  1  0  0  0  0
  7 31  1  0  0  0  0
  7 32  1  0  0  0  0
  8  9  1  0  0  0  0
  8 10  1  0  0  0  0
  8 14  1  0  0  0  0
  8 34  1  6  0  0  0
  9 12  1  0  0  0  0
  9 35  1  1  0  0  0
 10 11  1  0  0  0  0
 11 13  1  0  0  0  0
 11 18  1  1  0  0  0
 12 16  1  0  0  0  0
 14 15  2  0  0  0  0
 14 20  1  0  0  0  0
 15 16  1  0  0  0  0
 15 19  1  0  0  0  0
 16 21  2  0  0  0  0
 17 24  1  0  0  0  0
 19 22  2  0  0  0  0
 20 23  2  0  0  0  0
 22 23  1  0  0  0  0
 24 28  2  0  0  0  0
 25 27  1  0  0  0  0
 27 29  1  0  0  0  0
 30 33  1  0  0  0  0
M  END
>  <DATABASE_ID>
DB00248

>  <DATABASE_NAME>
drugbank

>  <SMILES>
O=C(N(CCCN(C)C)C(=O)NCC)[C@@H]1C[C@H]2[C@H](N(C1)CC=C)Cc1c3c2cccc3[nH]c1

>  <INCHI_IDENTIFIER>
InChI=1S/C26H37N5O2/c1-5-11-30-17-19(25(32)31(26(33)27-6-2)13-8-12-29(3)4)14-21-20-9-7-10-22-24(20)18(16-28-22)15-23(21)30/h5,7,9-10,16,19,21,23,28H,1,6,8,11-15,17H2,2-4H3,(H,27,33)/t19-,21-,23-/m1/s1

>  <INCHI_KEY>
InChIKey=KORNTPPJEAJQIU-KJXAQDMKSA-N

>  <JCHEM_ACCEPTOR_COUNT>
4

>  <JCHEM_AVERAGE_POLARIZABILITY>
52.495201

>  <JCHEM_BIOAVAILABILITY>
1

>  <JCHEM_DONOR_COUNT>
2

>  <JCHEM_EXACT_MASS>
451.29474

>  <JCHEM_FORMAL_CHARGE>
0

>  <JCHEM_FORMULA>
C26H37N5O2

>  <JCHEM_GHOSE_FILTER>
0

>  <JCHEM_IUPAC>
1-[3-(dimethylamino)propyl]-3-ethyl-1-{[(2R,4R,7R)-6-(prop-2-en-1-yl)-6,11-diazatetracyclo[7.6.1.0^{2,7}.0^{12,16}]hexadeca-1(16),9,12,14-tetraen-4-yl]carbonyl}urea

>  <ALOGPS_LOGP>
2.97

>  <JCHEM_LOGP>
2.5785162

>  <ALOGPS_LOGS>
-3.8499999

>  <JCHEM_MASS>
451.60431

>  <JCHEM_MDDR_LIKE_RULE>
1

>  <JCHEM_NUMBER_OF_RINGS>
4

>  <JCHEM_PHYSIOLOGICAL_CHARGE>
2

>  <JCHEM_PKA>
17.065609

>  <JCHEM_PKA_STRONGEST_ACIDIC>
15.248916

>  <JCHEM_PKA_STRONGEST_BASIC>
9.3205709

>  <JCHEM_POLAR_SURFACE_AREA>
71.68

>  <JCHEM_REFRACTIVITY>
133.5029

>  <JCHEM_ROTATABLE_BOND_COUNT>
8

>  <JCHEM_RULE_OF_FIVE>
1

>  <ALOGPS_SOLUBILITY>
6.40e-02 g/l

>  <JCHEM_TRADITIONAL_IUPAC>
cabergoline

>  <JCHEM_VEBER_RULE>
0

>  <DRUGBANK_ID>
DB00248

>  <DRUG_GROUPS>
approved

>  <GENERIC_NAME>
Cabergoline

>  <SYNONYMS>
Cabergolina; Cabergolinum

>  <BRANDS>
Cabaser; Dostinex

$$$$
Dapsone
 OpenBabel02121510022D

 17 18  0  0  0  0  0  0  0  0999 V2000
    2.4750    0.0000    0.0000 S   0  0  0  0  0  0  0  0  0  0  0  0
    1.6500    0.0000    0.0000 O   0  0  0  0  0  0  0  0  0  0  0  0
    3.3000    0.0000    0.0000 O   0  0  0  0  0  0  0  0  0  0  0  0
    2.4750   -3.3000    0.0000 N   0  0  0  0  0  0  0  0  0  0  0  0
    2.4750    3.3000    0.0000 N   0  0  0  0  0  0  0  0  0  0  0  0
    2.4750   -0.8250    0.0000 C   0  0  0  0  0  0  0  0  0  0  0  0
    2.4750    0.8250    0.0000 C   0  0  0  0  0  0  0  0  0  0  0  0
    1.7610   -1.2380    0.0000 C   0  0  0  0  0  0  0  0  0  0  0  0
    3.1900    1.2380    0.0000 C   0  0  0  0  0  0  0  0  0  0  0  0
    3.1900   -1.2380    0.0000 C   0  0  0  0  0  0  0  0  0  0  0  0
    1.7610    1.2380    0.0000 C   0  0  0  0  0  0  0  0  0  0  0  0
    1.7610   -2.0620    0.0000 C   0  0  0  0  0  0  0  0  0  0  0  0
    3.1900    2.0620    0.0000 C   0  0  0  0  0  0  0  0  0  0  0  0
    3.1900   -2.0620    0.0000 C   0  0  0  0  0  0  0  0  0  0  0  0
    1.7610    2.0620    0.0000 C   0  0  0  0  0  0  0  0  0  0  0  0
    2.4750   -2.4750    0.0000 C   0  0  0  0  0  0  0  0  0  0  0  0
    2.4750    2.4750    0.0000 C   0  0  0  0  0  0  0  0  0  0  0  0
  1  2  2  0  0  0  0
  1  3  2  0  0  0  0
  1  6  1  0  0  0  0
  1  7  1  0  0  0  0
  4 16  1  0  0  0  0
  5 17  1  0  0  0  0
  6  8  2  0  0  0  0
  6 10  1  0  0  0  0
  7  9  2  0  0  0  0
  7 11  1  0  0  0  0
  8 12  1  0  0  0  0
  9 13  1  0  0  0  0
 10 14  2  0  0  0  0
 11 15  2  0  0  0  0
 12 16  2  0  0  0  0
 13 17  2  0  0  0  0
 14 16  1  0  0  0  0
 15 17  1  0  0  0  0
M  END
>  <DATABASE_ID>
DB00250

>  <DATABASE_NAME>
drugbank

>  <SMILES>
S(=O)(=O)(c1ccc(N)cc1)c1ccc(N)cc1

>  <INCHI_IDENTIFIER>
InChI=1S/C12H12N2O2S/c13-9-1-5-11(6-2-9)17(15,16)12-7-3-10(14)4-8-12/h1-8H,13-14H2

>  <INCHI_KEY>
InChIKey=MQJKPEGWNLWLTK-UHFFFAOYSA-N

>  <JCHEM_ACCEPTOR_COUNT>
4

>  <JCHEM_AVERAGE_POLARIZABILITY>
25.050312

>  <JCHEM_BIOAVAILABILITY>
1

>  <JCHEM_DONOR_COUNT>
2

>  <JCHEM_EXACT_MASS>
248.06195

>  <JCHEM_FORMAL_CHARGE>
0

>  <JCHEM_FORMULA>
C12H12N2O2S

>  <JCHEM_GHOSE_FILTER>
1

>  <JCHEM_IUPAC>
4-[(4-aminobenzene)sulfonyl]aniline

>  <ALOGPS_LOGP>
1.1900001

>  <JCHEM_LOGP>
1.2702285

>  <ALOGPS_LOGS>
-2.9400001

>  <JCHEM_MASS>
248.30099

>  <JCHEM_MDDR_LIKE_RULE>
0

>  <JCHEM_NUMBER_OF_RINGS>
2

>  <JCHEM_PHYSIOLOGICAL_CHARGE>
0

>  <JCHEM_PKA_STRONGEST_BASIC>
2.391712

>  <JCHEM_POLAR_SURFACE_AREA>
86.18

>  <JCHEM_REFRACTIVITY>
68.990997

>  <JCHEM_ROTATABLE_BOND_COUNT>
2

>  <JCHEM_RULE_OF_FIVE>
1

>  <ALOGPS_SOLUBILITY>
2.84e-01 g/l

>  <JCHEM_TRADITIONAL_IUPAC>
4-(4-aminobenzenesulfonyl)aniline

>  <JCHEM_VEBER_RULE>
0

>  <DRUGBANK_ID>
DB00250

>  <DRUG_GROUPS>
approved; investigational

>  <GENERIC_NAME>
Dapsone

>  <SYNONYMS>
1,1'-Sulfonylbis[4-aminobenzene]; 4,4'-Diaminodiphenyl sulfone; 4,4'-Diaminodiphenyl sulphone; 4,4'-Diaminodiphenylsulfone; 4,4'-Sulfonylbisbenzeneamine; 4,4'-Sulfonyldianilin; 4,4'-sulfonyldianiline

>  <BRANDS>
Aczone

$$$$
Phenytoin
 OpenBabel02121510022D

 19 21  0  0  0  0  0  0  0  0999 V2000
    3.5020    1.7790    0.0000 O   0  0  0  0  0  0  0  0  0  0  0  0
    6.2310    0.7860    0.0000 O   0  0  0  0  0  0  0  0  0  0  0  0
    4.8990    0.1640    0.0000 N   0  0  0  0  0  0  0  0  0  0  0  0
    4.9450    1.4980    0.0000 N   0  0  0  0  0  0  0  0  0  0  0  0
    4.1240    0.4460    0.0000 C   0  0  0  0  0  0  0  0  0  0  0  0
    3.8410   -0.3290    0.0000 C   0  0  0  0  0  0  0  0  0  0  0  0
    3.2990    0.4750    0.0000 C   0  0  0  0  0  0  0  0  0  0  0  0
    4.1520    1.2710    0.0000 C   0  0  0  0  0  0  0  0  0  0  0  0
    5.4070    0.8140    0.0000 C   0  0  0  0  0  0  0  0  0  0  0  0
    3.1270   -0.7410    0.0000 C   0  0  0  0  0  0  0  0  0  0  0  0
    2.9120    1.2040    0.0000 C   0  0  0  0  0  0  0  0  0  0  0  0
    4.5560   -0.7410    0.0000 C   0  0  0  0  0  0  0  0  0  0  0  0
    2.8620   -0.2240    0.0000 C   0  0  0  0  0  0  0  0  0  0  0  0
    2.0870    1.2320    0.0000 C   0  0  0  0  0  0  0  0  0  0  0  0
    3.1270   -1.5660    0.0000 C   0  0  0  0  0  0  0  0  0  0  0  0
    4.5560   -1.5660    0.0000 C   0  0  0  0  0  0  0  0  0  0  0  0
    2.0370   -0.1960    0.0000 C   0  0  0  0  0  0  0  0  0  0  0  0
    1.6500    0.5330    0.0000 C   0  0  0  0  0  0  0  0  0  0  0  0
    3.8410   -1.9790    0.0000 C   0  0  0  0  0  0  0  0  0  0  0  0
  1  8  2  0  0  0  0
  2  9  2  0  0  0  0
  3  5  1  0  0  0  0
  3  9  1  0  0  0  0
  4  8  1  0  0  0  0
  4  9  1  0  0  0  0
  5  6  1  0  0  0  0
  5  7  1  0  0  0  0
  5  8  1  0  0  0  0
  6 10  2  0  0  0  0
  6 12  1  0  0  0  0
  7 11  2  0  0  0  0
  7 13  1  0  0  0  0
 10 15  1  0  0  0  0
 11 14  1  0  0  0  0
 12 16  2  0  0  0  0
 13 17  2  0  0  0  0
 14 18  2  0  0  0  0
 15 19  2  0  0  0  0
 16 19  1  0  0  0  0
 17 18  1  0  0  0  0
M  END
>  <DATABASE_ID>
DB00252

>  <DATABASE_NAME>
drugbank

>  <SMILES>
O=C1NC(=O)NC1(c1ccccc1)c1ccccc1

>  <INCHI_IDENTIFIER>
InChI=1S/C15H12N2O2/c18-13-15(17-14(19)16-13,11-7-3-1-4-8-11)12-9-5-2-6-10-12/h1-10H,(H2,16,17,18,19)

>  <INCHI_KEY>
InChIKey=CXOFVDLJLONNDW-UHFFFAOYSA-N

>  <JCHEM_ACCEPTOR_COUNT>
2

>  <JCHEM_AVERAGE_POLARIZABILITY>
25.481527

>  <JCHEM_BIOAVAILABILITY>
1

>  <JCHEM_DONOR_COUNT>
2

>  <JCHEM_EXACT_MASS>
252.08987

>  <JCHEM_FORMAL_CHARGE>
0

>  <JCHEM_FORMULA>
C15H12N2O2

>  <JCHEM_GHOSE_FILTER>
1

>  <JCHEM_IUPAC>
5,5-diphenylimidazolidine-2,4-dione

>  <ALOGPS_LOGP>
2.26

>  <JCHEM_LOGP>
2.1479204

>  <ALOGPS_LOGS>
-3.55

>  <JCHEM_MASS>
252.26801

>  <JCHEM_MDDR_LIKE_RULE>
0

>  <JCHEM_NUMBER_OF_RINGS>
3

>  <JCHEM_PHYSIOLOGICAL_CHARGE>
0

>  <JCHEM_PKA>
14.714767

>  <JCHEM_PKA_STRONGEST_ACIDIC>
9.466258

>  <JCHEM_PKA_STRONGEST_BASIC>
-9.0486708

>  <JCHEM_POLAR_SURFACE_AREA>
58.200001

>  <JCHEM_REFRACTIVITY>
70.182297

>  <JCHEM_ROTATABLE_BOND_COUNT>
2

>  <JCHEM_RULE_OF_FIVE>
1

>  <ALOGPS_SOLUBILITY>
7.11e-02 g/l

>  <JCHEM_TRADITIONAL_IUPAC>
phenytoin

>  <JCHEM_VEBER_RULE>
0

>  <DRUGBANK_ID>
DB00252

>  <DRUG_GROUPS>
approved

>  <GENERIC_NAME>
Phenytoin

>  <SYNONYMS>
5,5-Diphenyl-imidazolidine-2,4-dione; 5,5-diphenylimidazolidine-2,4-dione; 5,5-diphenyltetrahydro-1H-2,4-imidazoledione	; Fenitoina; Phenytoine; Phenytoinum

>  <BRANDS>
Dilantin; Dilantin-125; Epanutin; Eptoin; Phenytek

>  <SALTS>
Phenytoin Sodium

$$$$
Doxycycline
 OpenBabel02121510022D

 34 37  0  0  1  0  0  0  0  0999 V2000
   17.9360   -9.4210    0.0000 C   0  0  2  0  0  0  0  0  0  0  0  0
   17.9530  -10.2420    0.0000 C   0  0  2  0  0  0  0  0  0  0  0  0
   18.6560   -9.0200    0.0000 C   0  0  1  0  0  0  0  0  0  0  0  0
   17.2310   -9.0020    0.0000 C   0  0  2  0  0  0  0  0  0  0  0  0
   17.2130  -10.6470    0.0000 C   0  0  0  0  0  0  0  0  0  0  0  0
   18.6310  -10.6650    0.0000 C   0  0  0  0  0  0  0  0  0  0  0  0
   19.3580   -9.4420    0.0000 C   0  0  0  0  0  0  0  0  0  0  0  0
   16.5110   -9.4070    0.0000 C   0  0  1  0  0  0  0  0  0  0  0  0
   16.5470  -10.2320    0.0000 C   0  0  0  0  0  0  0  0  0  0  0  0
   17.2100  -11.4750    0.0000 O   0  0  0  0  0  0  0  0  0  0  0  0
   19.3510  -10.2630    0.0000 C   0  0  0  0  0  0  0  0  0  0  0  0
   18.6020  -11.4920    0.0000 O   0  0  0  0  0  0  0  0  0  0  0  0
   20.0840   -9.0400    0.0000 O   0  0  0  0  0  0  0  0  0  0  0  0
   15.7990   -8.9920    0.0000 C   0  0  2  0  0  0  0  0  0  0  0  0
   15.7920  -10.6440    0.0000 C   0  0  0  0  0  0  0  0  0  0  0  0
   20.0600  -10.6890    0.0000 C   0  0  0  0  0  0  0  0  0  0  0  0
   15.0860   -9.4000    0.0000 C   0  0  0  0  0  0  0  0  0  0  0  0
   15.0820  -10.2280    0.0000 C   0  0  0  0  0  0  0  0  0  0  0  0
   15.7920  -11.4680    0.0000 O   0  0  0  0  0  0  0  0  0  0  0  0
   20.7830  -10.2840    0.0000 N   0  0  0  0  0  0  0  0  0  0  0  0
   20.0770  -11.5170    0.0000 O   0  0  0  0  0  0  0  0  0  0  0  0
   14.3630   -8.9880    0.0000 C   0  0  0  0  0  0  0  0  0  0  0  0
   14.3660  -10.6400    0.0000 C   0  0  0  0  0  0  0  0  0  0  0  0
   13.6500   -9.4040    0.0000 C   0  0  0  0  0  0  0  0  0  0  0  0
   13.6500  -10.2320    0.0000 C   0  0  0  0  0  0  0  0  0  0  0  0
   14.3660  -11.4680    0.0000 O   0  0  0  0  0  0  0  0  0  0  0  0
   15.8020   -7.9490    0.0000 C   0  0  0  0  0  0  0  0  0  0  0  0
   18.6690   -7.6880    0.0000 N   0  0  0  0  0  0  0  0  0  0  0  0
   19.4000   -7.2820    0.0000 C   0  0  0  0  0  0  0  0  0  0  0  0
   17.9530   -7.2580    0.0000 C   0  0  0  0  0  0  0  0  0  0  0  0
   17.9290   -8.5820    0.0000 H   0  0  0  0  0  0  0  0  0  0  0  0
   16.5070   -8.5690    0.0000 H   0  0  0  0  0  0  0  0  0  0  0  0
   17.2240   -7.9570    0.0000 O   0  0  0  0  0  0  0  0  0  0  0  0
   17.9210  -11.0760    0.0000 O   0  0  0  0  0  0  0  0  0  0  0  0
  1  2  1  0  0  0  0
  1  3  1  0  0  0  0
  1  4  1  0  0  0  0
  1 31  1  6  0  0  0
  2  5  1  0  0  0  0
  2  6  1  0  0  0  0
  2 34  1  6  0  0  0
  3  7  1  0  0  0  0
  3 28  1  6  0  0  0
  4  8  1  0  0  0  0
  4 33  1  6  0  0  0
  5  9  2  0  0  0  0
  5 10  1  0  0  0  0
  6 11  1  0  0  0  0
  6 12  2  0  0  0  0
  7 11  2  0  0  0  0
  7 13  1  0  0  0  0
  8  9  1  0  0  0  0
  8 14  1  0  0  0  0
  8 32  1  6  0  0  0
  9 15  1  0  0  0  0
 11 16  1  0  0  0  0
 14 17  1  0  0  0  0
 14 27  1  6  0  0  0
 15 18  1  0  0  0  0
 15 19  2  0  0  0  0
 16 20  1  0  0  0  0
 16 21  2  0  0  0  0
 17 18  2  0  0  0  0
 17 22  1  0  0  0  0
 18 23  1  0  0  0  0
 22 24  2  0  0  0  0
 23 25  2  0  0  0  0
 23 26  1  0  0  0  0
 24 25  1  0  0  0  0
 28 29  1  0  0  0  0
 28 30  1  0  0  0  0
M  END
>  <DATABASE_ID>
DB00254

>  <DATABASE_NAME>
drugbank

>  <SMILES>
OC=1[C@@H](N(C)C)[C@H]2[C@@](O)(C(=O)C=1C(=O)N)C(O)=C1[C@@H]([C@H](c3c(C1=O)c(O)ccc3)C)[C@@H]2O

>  <INCHI_IDENTIFIER>
InChI=1S/C22H24N2O8/c1-7-8-5-4-6-9(25)11(8)16(26)12-10(7)17(27)14-15(24(2)3)18(28)13(21(23)31)20(30)22(14,32)19(12)29/h4-7,10,14-15,17,25,27-29,32H,1-3H3,(H2,23,31)/t7-,10+,14+,15-,17-,22-/m0/s1

>  <INCHI_KEY>
InChIKey=JBIWCJUYHHGXTC-AKNGSSGZSA-N

>  <JCHEM_ACCEPTOR_COUNT>
9

>  <JCHEM_AVERAGE_POLARIZABILITY>
42.882366

>  <JCHEM_BIOAVAILABILITY>
1

>  <JCHEM_DONOR_COUNT>
6

>  <JCHEM_EXACT_MASS>
444.15326

>  <JCHEM_FORMAL_CHARGE>
0

>  <JCHEM_FORMULA>
C22H24N2O8

>  <JCHEM_GHOSE_FILTER>
0

>  <JCHEM_IUPAC>
(4S,4aR,5S,5aR,6R,12aS)-4-(dimethylamino)-3,5,10,12,12a-pentahydroxy-6-methyl-1,11-dioxo-1,4,4a,5,5a,6,11,12a-octahydrotetracene-2-carboxamide

>  <ALOGPS_LOGP>
-0.72000003

>  <JCHEM_LOGP>
-3.435637

>  <ALOGPS_LOGS>
-2.8499999

>  <JCHEM_MASS>
444.4346

>  <JCHEM_MDDR_LIKE_RULE>
0

>  <JCHEM_NUMBER_OF_RINGS>
4

>  <JCHEM_PHYSIOLOGICAL_CHARGE>
-1

>  <JCHEM_PKA>
4.6749039

>  <JCHEM_PKA_STRONGEST_ACIDIC>
-2.235276

>  <JCHEM_PKA_STRONGEST_BASIC>
7.751996

>  <JCHEM_POLAR_SURFACE_AREA>
181.62

>  <JCHEM_REFRACTIVITY>
113.8919

>  <JCHEM_ROTATABLE_BOND_COUNT>
2

>  <JCHEM_RULE_OF_FIVE>
0

>  <ALOGPS_SOLUBILITY>
6.30e-01 g/l

>  <JCHEM_TRADITIONAL_IUPAC>
doxycycline

>  <JCHEM_VEBER_RULE>
0

>  <DRUGBANK_ID>
DB00254

>  <DRUG_GROUPS>
approved; investigational

>  <GENERIC_NAME>
Doxycycline

>  <SYNONYMS>
6-alpha-deoxy-5-oxytetracycline; 6α-deoxy-5-oxytetracycline

>  <BRANDS>
Adoxa; Alodox; Atridox; Doryx; Doxy; Doxycin; Doxylin; Jenacyclin; Microdox; Monodox; Morgidox; NicAzelDoxyKit; Nu-Doxycycline; Ocudox; Oracea; Periostat; Supracyclin; Vibra-Tabs; Vibramycin

>  <SALTS>
Doxycycline hyclate; Doxycycline hydrochloride

$$$$
Diethylstilbestrol
 OpenBabel02121510022D

 20 21  0  0  0  0  0  0  0  0999 V2000
    3.7940    3.5060    0.0000 O   0  0  0  0  0  0  0  0  0  0  0  0
    3.0790   -3.5060    0.0000 O   0  0  0  0  0  0  0  0  0  0  0  0
    3.7940    0.2060    0.0000 C   0  0  0  0  0  0  0  0  0  0  0  0
    3.0790   -0.2060    0.0000 C   0  0  0  0  0  0  0  0  0  0  0  0
    4.5080   -0.2060    0.0000 C   0  0  0  0  0  0  0  0  0  0  0  0
    2.3640    0.2060    0.0000 C   0  0  0  0  0  0  0  0  0  0  0  0
    3.7940    1.0310    0.0000 C   0  0  0  0  0  0  0  0  0  0  0  0
    3.0790   -1.0310    0.0000 C   0  0  0  0  0  0  0  0  0  0  0  0
    5.2220    0.2060    0.0000 C   0  0  0  0  0  0  0  0  0  0  0  0
    1.6500   -0.2060    0.0000 C   0  0  0  0  0  0  0  0  0  0  0  0
    3.0790    1.4440    0.0000 C   0  0  0  0  0  0  0  0  0  0  0  0
    3.7940   -1.4440    0.0000 C   0  0  0  0  0  0  0  0  0  0  0  0
    4.5080    1.4440    0.0000 C   0  0  0  0  0  0  0  0  0  0  0  0
    2.3640   -1.4440    0.0000 C   0  0  0  0  0  0  0  0  0  0  0  0
    3.0790    2.2690    0.0000 C   0  0  0  0  0  0  0  0  0  0  0  0
    3.7940   -2.2690    0.0000 C   0  0  0  0  0  0  0  0  0  0  0  0
    4.5080    2.2690    0.0000 C   0  0  0  0  0  0  0  0  0  0  0  0
    2.3640   -2.2690    0.0000 C   0  0  0  0  0  0  0  0  0  0  0  0
    3.7940    2.6810    0.0000 C   0  0  0  0  0  0  0  0  0  0  0  0
    3.0790   -2.6810    0.0000 C   0  0  0  0  0  0  0  0  0  0  0  0
  1 19  1  0  0  0  0
  2 20  1  0  0  0  0
  3  4  2  3  0  0  0
  3  5  1  0  0  0  0
  3  7  1  0  0  0  0
  4  6  1  0  0  0  0
  4  8  1  0  0  0  0
  5  9  1  0  0  0  0
  6 10  1  0  0  0  0
  7 11  2  0  0  0  0
  7 13  1  0  0  0  0
  8 12  2  0  0  0  0
  8 14  1  0  0  0  0
 11 15  1  0  0  0  0
 12 16  1  0  0  0  0
 13 17  2  0  0  0  0
 14 18  2  0  0  0  0
 15 19  2  0  0  0  0
 16 20  2  0  0  0  0
 17 19  1  0  0  0  0
 18 20  1  0  0  0  0
M  END
>  <DATABASE_ID>
DB00255

>  <DATABASE_NAME>
drugbank

>  <SMILES>
Oc1ccc(cc1)C(=C(CC)c1ccc(O)cc1)CC

>  <INCHI_IDENTIFIER>
InChI=1S/C18H20O2/c1-3-17(13-5-9-15(19)10-6-13)18(4-2)14-7-11-16(20)12-8-14/h5-12,19-20H,3-4H2,1-2H3/b18-17+

>  <INCHI_KEY>
InChIKey=RGLYKWWBQGJZGM-ISLYRVAYSA-N

>  <JCHEM_ACCEPTOR_COUNT>
2

>  <JCHEM_AVERAGE_POLARIZABILITY>
30.688484

>  <JCHEM_BIOAVAILABILITY>
1

>  <JCHEM_DONOR_COUNT>
2

>  <JCHEM_EXACT_MASS>
268.14633

>  <JCHEM_FORMAL_CHARGE>
0

>  <JCHEM_FORMULA>
C18H20O2

>  <JCHEM_GHOSE_FILTER>
1

>  <JCHEM_IUPAC>
4-[4-(4-hydroxyphenyl)hex-3-en-3-yl]phenol

>  <ALOGPS_LOGP>
4.6199999

>  <JCHEM_LOGP>
5.1938829

>  <ALOGPS_LOGS>
-4.3899999

>  <JCHEM_MASS>
268.35019

>  <JCHEM_MDDR_LIKE_RULE>
0

>  <JCHEM_NUMBER_OF_RINGS>
2

>  <JCHEM_PHYSIOLOGICAL_CHARGE>
0

>  <JCHEM_PKA>
9.7314911

>  <JCHEM_PKA_STRONGEST_ACIDIC>
9.1291981

>  <JCHEM_PKA_STRONGEST_BASIC>
-5.9567924

>  <JCHEM_POLAR_SURFACE_AREA>
40.459999

>  <JCHEM_REFRACTIVITY>
83.240601

>  <JCHEM_ROTATABLE_BOND_COUNT>
4

>  <JCHEM_RULE_OF_FIVE>
0

>  <ALOGPS_SOLUBILITY>
1.09e-02 g/l

>  <JCHEM_TRADITIONAL_IUPAC>
4-[4-(4-hydroxyphenyl)hex-3-en-3-yl]phenol

>  <JCHEM_VEBER_RULE>
0

>  <DRUGBANK_ID>
DB00255

>  <DRUG_GROUPS>
approved

>  <GENERIC_NAME>
Diethylstilbestrol

>  <SYNONYMS>
(E)-3,4-bis(4-hydroxyphenyl)-3-hexene; 4,4'-dihydroxy-α,β-diethylstilbene; DES; Stilboestrol; trans-4,4'-(1,2-diethyl-1,2-ethenediyl)bisphenol; trans-Diethylstilbesterol; trans-Diethylstilbestrol; trans-Diethylstilboesterol; α,α'-diethyl-(E)-4,4'-stilbenediol

>  <BRANDS>
Distilbene; Stilbestrol; Stilbetin

$$$$
Lymecycline
 OpenBabel02121510022D

 45 48  0  0  1  0  0  0  0  0999 V2000
    7.3430  -14.2730    0.0000 C   0  0  0  0  0  0  0  0  0  0  0  0
    7.3430  -15.0980    0.0000 C   0  0  0  0  0  0  0  0  0  0  0  0
    8.0570  -15.5100    0.0000 C   0  0  0  0  0  0  0  0  0  0  0  0
    8.7720  -15.0980    0.0000 C   0  0  0  0  0  0  0  0  0  0  0  0
    8.7720  -14.2730    0.0000 C   0  0  0  0  0  0  0  0  0  0  0  0
    8.0570  -13.8600    0.0000 C   0  0  0  0  0  0  0  0  0  0  0  0
    9.4860  -15.5100    0.0000 C   0  0  0  0  0  0  0  0  0  0  0  0
   10.2010  -15.0980    0.0000 C   0  0  0  0  0  0  0  0  0  0  0  0
   10.2010  -14.2730    0.0000 C   0  0  1  0  0  0  0  0  0  0  0  0
    9.4860  -13.8600    0.0000 C   0  0  1  0  0  0  0  0  0  0  0  0
   10.9150  -15.5100    0.0000 C   0  0  0  0  0  0  0  0  0  0  0  0
   11.6300  -15.0980    0.0000 C   0  0  1  0  0  0  0  0  0  0  0  0
   11.6300  -14.2730    0.0000 C   0  0  1  0  0  0  0  0  0  0  0  0
   10.9150  -13.8600    0.0000 C   0  0  0  0  0  0  0  0  0  0  0  0
   12.3440  -15.5100    0.0000 C   0  0  0  0  0  0  0  0  0  0  0  0
   13.0590  -15.0980    0.0000 C   0  0  0  0  0  0  0  0  0  0  0  0
   13.0590  -14.2730    0.0000 C   0  0  0  0  0  0  0  0  0  0  0  0
   12.3440  -13.8600    0.0000 C   0  0  1  0  0  0  0  0  0  0  0  0
    8.0570  -16.3350    0.0000 O   0  0  0  0  0  0  0  0  0  0  0  0
    9.4860  -16.3350    0.0000 O   0  0  0  0  0  0  0  0  0  0  0  0
   10.9150  -16.3350    0.0000 O   0  0  0  0  0  0  0  0  0  0  0  0
   12.3440  -16.3350    0.0000 O   0  0  0  0  0  0  0  0  0  0  0  0
   13.7860  -13.8520    0.0000 O   0  0  0  0  0  0  0  0  0  0  0  0
   13.7860  -15.5180    0.0000 C   0  0  0  0  0  0  0  0  0  0  0  0
   14.4980  -15.1080    0.0000 N   0  0  0  0  0  0  0  0  0  0  0  0
   13.7860  -16.3350    0.0000 O   0  0  0  0  0  0  0  0  0  0  0  0
   15.1940  -15.5100    0.0000 C   0  0  0  0  0  0  0  0  0  0  0  0
   15.8980  -15.1030    0.0000 N   0  0  0  0  0  0  0  0  0  0  0  0
   16.5980  -15.5080    0.0000 C   0  0  0  0  0  0  0  0  0  0  0  0
   17.3000  -15.1020    0.0000 C   0  0  0  0  0  0  0  0  0  0  0  0
   18.0010  -15.5070    0.0000 C   0  0  0  0  0  0  0  0  0  0  0  0
   18.7020  -15.1020    0.0000 C   0  0  0  0  0  0  0  0  0  0  0  0
   19.4030  -15.5070    0.0000 C   0  0  2  0  0  0  0  0  0  0  0  0
   20.1050  -15.1020    0.0000 N   0  0  0  0  0  0  0  0  0  0  0  0
   19.4030  -16.3350    0.0000 C   0  0  0  0  0  0  0  0  0  0  0  0
   18.6770  -16.7540    0.0000 O   0  0  0  0  0  0  0  0  0  0  0  0
   20.1060  -16.7410    0.0000 O   0  0  0  0  0  0  0  0  0  0  0  0
    9.4860  -13.0350    0.0000 C   0  0  0  0  0  0  0  0  0  0  0  0
    8.7730  -13.4480    0.0000 O   0  0  0  0  0  0  0  0  0  0  0  0
   10.1950  -13.4490    0.0000 H   0  0  0  0  0  0  0  0  0  0  0  0
   11.6300  -13.4480    0.0000 H   0  0  0  0  0  0  0  0  0  0  0  0
   12.3440  -13.0350    0.0000 N   0  0  0  0  0  0  0  0  0  0  0  0
   11.6220  -12.6180    0.0000 C   0  0  0  0  0  0  0  0  0  0  0  0
   13.0510  -12.6270    0.0000 C   0  0  0  0  0  0  0  0  0  0  0  0
   11.6300  -15.9230    0.0000 O   0  0  0  0  0  0  0  0  0  0  0  0
  1  2  1  0  0  0  0
  1  6  2  0  0  0  0
  2  3  2  0  0  0  0
  3  4  1  0  0  0  0
  3 19  1  0  0  0  0
  4  5  2  0  0  0  0
  4  7  1  0  0  0  0
  5  6  1  0  0  0  0
  5 10  1  0  0  0  0
  7  8  1  0  0  0  0
  7 20  2  0  0  0  0
  8  9  1  0  0  0  0
  8 11  2  0  0  0  0
  9 10  1  0  0  0  0
  9 14  1  0  0  0  0
  9 40  1  6  0  0  0
 10 38  1  6  0  0  0
 10 39  1  0  0  0  0
 11 12  1  0  0  0  0
 11 21  1  0  0  0  0
 12 13  1  0  0  0  0
 12 15  1  0  0  0  0
 12 45  1  6  0  0  0
 13 14  1  0  0  0  0
 13 18  1  0  0  0  0
 13 41  1  6  0  0  0
 15 16  1  0  0  0  0
 15 22  2  0  0  0  0
 16 17  2  0  0  0  0
 16 24  1  0  0  0  0
 17 18  1  0  0  0  0
 17 23  1  0  0  0  0
 18 42  1  6  0  0  0
 24 25  1  0  0  0  0
 24 26  2  0  0  0  0
 25 27  1  0  0  0  0
 27 28  1  0  0  0  0
 28 29  1  0  0  0  0
 29 30  1  0  0  0  0
 30 31  1  0  0  0  0
 31 32  1  0  0  0  0
 33 32  1  6  0  0  0
 33 34  1  0  0  0  0
 33 35  1  0  0  0  0
 35 36  2  0  0  0  0
 35 37  1  0  0  0  0
 42 43  1  0  0  0  0
 42 44  1  0  0  0  0
M  END
>  <DATABASE_ID>
DB00256

>  <DATABASE_NAME>
drugbank

>  <SMILES>
OC=1[C@@H](N(C)C)[C@@H]2C[C@H]3C(=C(O)[C@]2(O)C(=O)C=1C(=O)NCNCCCC[C@H](N)C(O)=O)C(=O)c1c(cccc1O)[C@]3(O)C

>  <INCHI_IDENTIFIER>
InChI=1S/C29H38N4O10/c1-28(42)13-7-6-9-17(34)18(13)22(35)19-14(28)11-15-21(33(2)3)23(36)20(25(38)29(15,43)24(19)37)26(39)32-12-31-10-5-4-8-16(30)27(40)41/h6-7,9,14-16,21,31,34,36-37,42-43H,4-5,8,10-12,30H2,1-3H3,(H,32,39)(H,40,41)/t14-,15-,16-,21-,28+,29-/m0/s1

>  <INCHI_KEY>
InChIKey=AHEVKYYGXVEWNO-UEPZRUIBSA-N

>  <JCHEM_ACCEPTOR_COUNT>
13

>  <JCHEM_AVERAGE_POLARIZABILITY>
62.875412

>  <JCHEM_BIOAVAILABILITY>
0

>  <JCHEM_DONOR_COUNT>
9

>  <JCHEM_EXACT_MASS>
602.25879

>  <JCHEM_FORMAL_CHARGE>
0

>  <JCHEM_FORMULA>
C29H38N4O10

>  <JCHEM_GHOSE_FILTER>
0

>  <JCHEM_IUPAC>
(2S)-6-[({[(4S,4aS,5aS,6S,12aS)-4-(dimethylamino)-3,6,10,12,12a-pentahydroxy-6-methyl-1,11-dioxo-1,4,4a,5,5a,6,11,12a-octahydrotetracen-2-yl]formamido}methyl)amino]-2-aminohexanoic acid

>  <ALOGPS_LOGP>
-0.27000001

>  <JCHEM_LOGP>
-8.2986488

>  <ALOGPS_LOGS>
-2.6600001

>  <JCHEM_MASS>
602.63281

>  <JCHEM_MDDR_LIKE_RULE>
1

>  <JCHEM_NUMBER_OF_RINGS>
4

>  <JCHEM_PHYSIOLOGICAL_CHARGE>
0

>  <JCHEM_PKA>
2.5830572

>  <JCHEM_PKA_STRONGEST_ACIDIC>
0.4019689

>  <JCHEM_PKA_STRONGEST_BASIC>
9.4983358

>  <JCHEM_POLAR_SURFACE_AREA>
242.98

>  <JCHEM_REFRACTIVITY>
154.5096

>  <JCHEM_ROTATABLE_BOND_COUNT>
10

>  <JCHEM_RULE_OF_FIVE>
0

>  <ALOGPS_SOLUBILITY>
1.31e+00 g/l

>  <JCHEM_TRADITIONAL_IUPAC>
lymecycline

>  <JCHEM_VEBER_RULE>
0

>  <DRUGBANK_ID>
DB00256

>  <DRUG_GROUPS>
approved

>  <GENERIC_NAME>
Lymecycline

>  <SYNONYMS>
N-Lysinomethyltetracycline; Tetracycline-L-methylene lysine; Tetracycline-L-methylenelysine

>  <BRANDS>
Eficiclina; Tetralisal; Tetralysal

$$$$
Calcium Acetate
 OpenBabel02121510022D

  9  6  0  0  0  0  0  0  0  0999 V2000
    3.7930    0.2060    0.0000 Ca  0  2  0  0  0 15  0  0  0  0  0  0
    3.0790    0.6190    0.0000 O   0  5  0  0  0  0  0  0  0  0  0  0
    4.5080    0.6190    0.0000 O   0  5  0  0  0  0  0  0  0  0  0  0
    2.3640   -0.6190    0.0000 O   0  0  0  0  0  0  0  0  0  0  0  0
    5.2220   -0.6190    0.0000 O   0  0  0  0  0  0  0  0  0  0  0  0
    1.6500    0.6190    0.0000 C   0  0  0  0  0  0  0  0  0  0  0  0
    5.9360    0.6190    0.0000 C   0  0  0  0  0  0  0  0  0  0  0  0
    2.3640    0.2060    0.0000 C   0  0  0  0  0  0  0  0  0  0  0  0
    5.2220    0.2060    0.0000 C   0  0  0  0  0  0  0  0  0  0  0  0
  2  8  1  0  0  0  0
  3  9  1  0  0  0  0
  4  8  2  0  0  0  0
  5  9  2  0  0  0  0
  6  8  1  0  0  0  0
  7  9  1  0  0  0  0
M  CHG  3   1   2   2  -1   3  -1
M  END
>  <DATABASE_ID>
DB00258

>  <DATABASE_NAME>
drugbank

>  <SMILES>
[Ca+2].O=C([O-])C.O=C([O-])C

>  <INCHI_IDENTIFIER>
InChI=1S/2C2H4O2.Ca/c2*1-2(3)4;/h2*1H3,(H,3,4);/q;;+2/p-2

>  <INCHI_KEY>
InChIKey=VSGNNIFQASZAOI-UHFFFAOYSA-L

>  <JCHEM_ACCEPTOR_COUNT>
2

>  <JCHEM_AVERAGE_POLARIZABILITY>
4.9561477

>  <JCHEM_BIOAVAILABILITY>
1

>  <JCHEM_DONOR_COUNT>
0

>  <JCHEM_EXACT_MASS>
157.9892

>  <JCHEM_FORMAL_CHARGE>
0

>  <JCHEM_FORMULA>
C4H6CaO4

>  <JCHEM_GHOSE_FILTER>
0

>  <JCHEM_IUPAC>
calcium diacetate

>  <ALOGPS_LOGP>
0.23999999

>  <JCHEM_LOGP>
-0.22334571

>  <ALOGPS_LOGS>
-0.029999999

>  <JCHEM_MASS>
158.166

>  <JCHEM_MDDR_LIKE_RULE>
0

>  <JCHEM_NUMBER_OF_RINGS>
0

>  <JCHEM_PHYSIOLOGICAL_CHARGE>
-1

>  <JCHEM_PKA_STRONGEST_ACIDIC>
4.5434399

>  <JCHEM_POLAR_SURFACE_AREA>
40.130001

>  <JCHEM_REFRACTIVITY>
23.480801

>  <JCHEM_ROTATABLE_BOND_COUNT>
0

>  <JCHEM_RULE_OF_FIVE>
1

>  <ALOGPS_SOLUBILITY>
1.47e+02 g/l

>  <JCHEM_TRADITIONAL_IUPAC>
calcium bis(acetate ion)

>  <JCHEM_VEBER_RULE>
0

>  <DRUGBANK_ID>
DB00258

>  <DRUG_GROUPS>
approved

>  <GENERIC_NAME>
Calcium Acetate

>  <SYNONYMS>
Brown acetate of lime; calcium ethanoate; calcium(II) acetate; Gray acetate of lime; Lime acetate; Lime pyrolignite

>  <BRANDS>
ELIPHOS; PhosLo; Phoslyra

$$$$
Sulfanilamide
 OpenBabel02121510022D

 11 11  0  0  0  0  0  0  0  0999 V2000
    2.4750    1.2380    0.0000 S   0  0  0  0  0  0  0  0  0  0  0  0
    1.6500    1.2380    0.0000 O   0  0  0  0  0  0  0  0  0  0  0  0
    3.3000    1.2380    0.0000 O   0  0  0  0  0  0  0  0  0  0  0  0
    2.4750    2.0620    0.0000 N   0  0  0  0  0  0  0  0  0  0  0  0
    2.4750   -2.0620    0.0000 N   0  0  0  0  0  0  0  0  0  0  0  0
    2.4750    0.4120    0.0000 C   0  0  0  0  0  0  0  0  0  0  0  0
    1.7610    0.0000    0.0000 C   0  0  0  0  0  0  0  0  0  0  0  0
    3.1900    0.0000    0.0000 C   0  0  0  0  0  0  0  0  0  0  0  0
    2.4750   -1.2380    0.0000 C   0  0  0  0  0  0  0  0  0  0  0  0
    1.7610   -0.8250    0.0000 C   0  0  0  0  0  0  0  0  0  0  0  0
    3.1900   -0.8250    0.0000 C   0  0  0  0  0  0  0  0  0  0  0  0
  1  2  2  0  0  0  0
  1  3  2  0  0  0  0
  1  4  1  0  0  0  0
  1  6  1  0  0  0  0
  5  9  1  0  0  0  0
  6  7  2  0  0  0  0
  6  8  1  0  0  0  0
  7 10  1  0  0  0  0
  8 11  2  0  0  0  0
  9 10  2  0  0  0  0
  9 11  1  0  0  0  0
M  END
>  <DATABASE_ID>
DB00259

>  <DATABASE_NAME>
drugbank

>  <SMILES>
S(=O)(=O)(N)c1ccc(N)cc1

>  <INCHI_IDENTIFIER>
InChI=1S/C6H8N2O2S/c7-5-1-3-6(4-2-5)11(8,9)10/h1-4H,7H2,(H2,8,9,10)

>  <INCHI_KEY>
InChIKey=FDDDEECHVMSUSB-UHFFFAOYSA-N

>  <JCHEM_ACCEPTOR_COUNT>
3

>  <JCHEM_AVERAGE_POLARIZABILITY>
16.248819

>  <JCHEM_BIOAVAILABILITY>
1

>  <JCHEM_DONOR_COUNT>
2

>  <JCHEM_EXACT_MASS>
172.03065

>  <JCHEM_FORMAL_CHARGE>
0

>  <JCHEM_FORMULA>
C6H8N2O2S

>  <JCHEM_GHOSE_FILTER>
0

>  <JCHEM_IUPAC>
4-aminobenzene-1-sulfonamide

>  <ALOGPS_LOGP>
-0.16

>  <JCHEM_LOGP>
-0.24964938

>  <ALOGPS_LOGS>
-1.22

>  <JCHEM_MASS>
172.205

>  <JCHEM_MDDR_LIKE_RULE>
0

>  <JCHEM_NUMBER_OF_RINGS>
1

>  <JCHEM_PHYSIOLOGICAL_CHARGE>
0

>  <JCHEM_PKA_STRONGEST_ACIDIC>
10.990055

>  <JCHEM_PKA_STRONGEST_BASIC>
2.2653255

>  <JCHEM_POLAR_SURFACE_AREA>
86.18

>  <JCHEM_REFRACTIVITY>
42.916302

>  <JCHEM_ROTATABLE_BOND_COUNT>
1

>  <JCHEM_RULE_OF_FIVE>
1

>  <ALOGPS_SOLUBILITY>
1.04e+01 g/l

>  <JCHEM_TRADITIONAL_IUPAC>
sulfanilamide

>  <JCHEM_VEBER_RULE>
0

>  <DRUGBANK_ID>
DB00259

>  <DRUG_GROUPS>
approved

>  <GENERIC_NAME>
Sulfanilamide

>  <SYNONYMS>
P-Aminobenzenesulfamide; P-Aminobenzenesulfonamide; Streptocide; Sulfamine; Sulphanilamide

>  <BRANDS>
AVC Vaginal; Streptocid

$$$$
Cycloserine
 OpenBabel02121510022D

  7  7  0  0  1  0  0  0  0  0999 V2000
    0.0000    0.0000    0.0000 O   0  0  0  0  0  0  0  0  0  0  0  0
    0.6670   -0.4850    0.0000 C   0  0  0  0  0  0  0  0  0  0  0  0
   -0.6670   -0.4850    0.0000 N   0  0  0  0  0  0  0  0  0  0  0  0
    0.4120   -1.2700    0.0000 C   0  0  1  0  0  0  0  0  0  0  0  0
    0.8970   -1.9370    0.0000 N   0  0  0  0  0  0  0  0  0  0  0  0
   -0.4120   -1.2700    0.0000 C   0  0  0  0  0  0  0  0  0  0  0  0
   -0.8970   -1.9370    0.0000 O   0  0  0  0  0  0  0  0  0  0  0  0
  1  2  1  0  0  0  0
  1  3  1  0  0  0  0
  2  4  1  0  0  0  0
  3  6  1  0  0  0  0
  4  5  1  1  0  0  0
  4  6  1  0  0  0  0
  6  7  2  0  0  0  0
M  END
>  <DATABASE_ID>
DB00260

>  <DATABASE_NAME>
drugbank

>  <SMILES>
O1NC(=O)[C@H](N)C1

>  <INCHI_IDENTIFIER>
InChI=1S/C3H6N2O2/c4-2-1-7-5-3(2)6/h2H,1,4H2,(H,5,6)/t2-/m1/s1

>  <INCHI_KEY>
InChIKey=DYDCUQKUCUHJBH-UWTATZPHSA-N

>  <JCHEM_ACCEPTOR_COUNT>
3

>  <JCHEM_AVERAGE_POLARIZABILITY>
8.866828

>  <JCHEM_BIOAVAILABILITY>
1

>  <JCHEM_DONOR_COUNT>
2

>  <JCHEM_EXACT_MASS>
102.04293

>  <JCHEM_FORMAL_CHARGE>
0

>  <JCHEM_FORMULA>
C3H6N2O2

>  <JCHEM_GHOSE_FILTER>
0

>  <JCHEM_IUPAC>
(4R)-4-amino-1,2-oxazolidin-3-one

>  <ALOGPS_LOGP>
-2.3099999

>  <JCHEM_LOGP>
-2.4213324

>  <ALOGPS_LOGS>
0.93000001

>  <JCHEM_MASS>
102.0919

>  <JCHEM_MDDR_LIKE_RULE>
0

>  <JCHEM_NUMBER_OF_RINGS>
1

>  <JCHEM_PHYSIOLOGICAL_CHARGE>
0

>  <JCHEM_PKA>
19.998852

>  <JCHEM_PKA_STRONGEST_ACIDIC>
4.2100868

>  <JCHEM_PKA_STRONGEST_BASIC>
8.3618641

>  <JCHEM_POLAR_SURFACE_AREA>
64.349998

>  <JCHEM_REFRACTIVITY>
21.848801

>  <JCHEM_ROTATABLE_BOND_COUNT>
0

>  <JCHEM_RULE_OF_FIVE>
1

>  <ALOGPS_SOLUBILITY>
8.77e+02 g/l

>  <JCHEM_TRADITIONAL_IUPAC>
cycloserine

>  <JCHEM_VEBER_RULE>
0

>  <DRUGBANK_ID>
DB00260

>  <DRUG_GROUPS>
approved

>  <GENERIC_NAME>
Cycloserine

>  <SYNONYMS>
(+)-4-Amino-3-isoxazolidinone; alpha-Cycloserine; D-Cycloserine; α-Cycloserine

>  <BRANDS>
Cycloserine; Oxamycin; Seromycin; Tisomycin

$$$$
Anagrelide
 OpenBabel02121510022D

 16 18  0  0  0  0  0  0  0  0999 V2000
    4.5230   -0.7730    0.0000 C   0  0  0  0  0  0  0  0  0  0  0  0
    4.5230    0.0450    0.0000 N   0  0  0  0  0  0  0  0  0  0  0  0
    3.0760    0.0450    0.0000 C   0  0  0  0  0  0  0  0  0  0  0  0
    3.7860   -1.1940    0.0000 N   0  0  0  0  0  0  0  0  0  0  0  0
    3.0760   -0.7730    0.0000 C   0  0  0  0  0  0  0  0  0  0  0  0
    3.7860    0.4720    0.0000 C   0  0  0  0  0  0  0  0  0  0  0  0
    2.3590    0.4550    0.0000 C   0  0  0  0  0  0  0  0  0  0  0  0
    1.6600    0.0450    0.0000 C   0  0  0  0  0  0  0  0  0  0  0  0
    2.3590   -1.1820    0.0000 C   0  0  0  0  0  0  0  0  0  0  0  0
    1.6600   -0.7730    0.0000 C   0  0  0  0  0  0  0  0  0  0  0  0
    2.3590    1.2730    0.0000 Cl  0  0  0  0  0  0  0  0  0  0  0  0
    0.9440    0.4550    0.0000 Cl  0  0  0  0  0  0  0  0  0  0  0  0
    5.3080    0.3070    0.0000 C   0  0  0  0  0  0  0  0  0  0  0  0
    5.3080   -1.0280    0.0000 N   0  0  0  0  0  0  0  0  0  0  0  0
    5.7930   -0.3610    0.0000 C   0  0  0  0  0  0  0  0  0  0  0  0
    6.6180   -0.3610    0.0000 O   0  0  0  0  0  0  0  0  0  0  0  0
  1  2  1  0  0  0  0
  1  4  2  0  0  0  0
  1 14  1  0  0  0  0
  2  6  1  0  0  0  0
  2 13  1  0  0  0  0
  3  5  1  0  0  0  0
  3  6  1  0  0  0  0
  3  7  2  0  0  0  0
  4  5  1  0  0  0  0
  5  9  2  0  0  0  0
  7  8  1  0  0  0  0
  7 11  1  0  0  0  0
  8 10  2  0  0  0  0
  8 12  1  0  0  0  0
  9 10  1  0  0  0  0
 13 15  1  0  0  0  0
 14 15  1  0  0  0  0
 15 16  2  0  0  0  0
M  END
>  <DATABASE_ID>
DB00261

>  <DATABASE_NAME>
drugbank

>  <SMILES>
Clc1c2CN3CC(=O)NC3=Nc2ccc1Cl

>  <INCHI_IDENTIFIER>
InChI=1S/C10H7Cl2N3O/c11-6-1-2-7-5(9(6)12)3-15-4-8(16)14-10(15)13-7/h1-2H,3-4H2,(H,13,14,16)

>  <INCHI_KEY>
InChIKey=OTBXOEAOVRKTNQ-UHFFFAOYSA-N

>  <JCHEM_ACCEPTOR_COUNT>
3

>  <JCHEM_AVERAGE_POLARIZABILITY>
23.61062

>  <JCHEM_BIOAVAILABILITY>
1

>  <JCHEM_DONOR_COUNT>
1

>  <JCHEM_EXACT_MASS>
254.99661

>  <JCHEM_FORMAL_CHARGE>
0

>  <JCHEM_FORMULA>
C10H7Cl2N3O

>  <JCHEM_GHOSE_FILTER>
1

>  <JCHEM_IUPAC>
6,7-dichloro-1H,2H,3H,5H-imidazolidino[2,1-b]quinazolin-2-one

>  <ALOGPS_LOGP>
1.95

>  <JCHEM_LOGP>
1.9439309

>  <ALOGPS_LOGS>
-2.96

>  <JCHEM_MASS>
256.08801

>  <JCHEM_MDDR_LIKE_RULE>
0

>  <JCHEM_NUMBER_OF_RINGS>
3

>  <JCHEM_PHYSIOLOGICAL_CHARGE>
0

>  <JCHEM_PKA_STRONGEST_ACIDIC>
12.548792

>  <JCHEM_PKA_STRONGEST_BASIC>
3.6198611

>  <JCHEM_POLAR_SURFACE_AREA>
44.700001

>  <JCHEM_REFRACTIVITY>
63.250599

>  <JCHEM_ROTATABLE_BOND_COUNT>
0

>  <JCHEM_RULE_OF_FIVE>
1

>  <ALOGPS_SOLUBILITY>
2.79e-01 g/l

>  <JCHEM_TRADITIONAL_IUPAC>
anagrelide

>  <JCHEM_VEBER_RULE>
0

>  <DRUGBANK_ID>
DB00261

>  <DRUG_GROUPS>
approved

>  <GENERIC_NAME>
Anagrelide

>  <BRANDS>
Agrylin; Xagrid

>  <SALTS>
Anagrelide Hydrochloride

$$$$
Sulfisoxazole
 OpenBabel02121510022D

 18 19  0  0  0  0  0  0  0  0999 V2000
    2.4750    0.6630    0.0000 S   0  0  0  0  0  0  0  0  0  0  0  0
    3.2760    2.7210    0.0000 O   0  0  0  0  0  0  0  0  0  0  0  0
    1.6500    0.6630    0.0000 O   0  0  0  0  0  0  0  0  0  0  0  0
    3.3000    0.6630    0.0000 O   0  0  0  0  0  0  0  0  0  0  0  0
    2.4750    1.4880    0.0000 N   0  0  0  0  0  0  0  0  0  0  0  0
    4.0830    2.8930    0.0000 N   0  0  0  0  0  0  0  0  0  0  0  0
    2.4750   -2.6370    0.0000 N   0  0  0  0  0  0  0  0  0  0  0  0
    2.4750   -0.1620    0.0000 C   0  0  0  0  0  0  0  0  0  0  0  0
    3.1900    1.9010    0.0000 C   0  0  0  0  0  0  0  0  0  0  0  0
    3.9430    1.5650    0.0000 C   0  0  0  0  0  0  0  0  0  0  0  0
    4.4950    2.1780    0.0000 C   0  0  0  0  0  0  0  0  0  0  0  0
    1.7610   -0.5740    0.0000 C   0  0  0  0  0  0  0  0  0  0  0  0
    3.1900   -0.5740    0.0000 C   0  0  0  0  0  0  0  0  0  0  0  0
    4.1150    0.7580    0.0000 C   0  0  0  0  0  0  0  0  0  0  0  0
    1.7610   -1.3990    0.0000 C   0  0  0  0  0  0  0  0  0  0  0  0
    3.1900   -1.3990    0.0000 C   0  0  0  0  0  0  0  0  0  0  0  0
    2.4750   -1.8120    0.0000 C   0  0  0  0  0  0  0  0  0  0  0  0
    5.3160    2.0920    0.0000 C   0  0  0  0  0  0  0  0  0  0  0  0
  1  3  2  0  0  0  0
  1  4  2  0  0  0  0
  1  5  1  0  0  0  0
  1  8  1  0  0  0  0
  2  6  1  0  0  0  0
  2  9  1  0  0  0  0
  5  9  1  0  0  0  0
  6 11  2  0  0  0  0
  7 17  1  0  0  0  0
  8 12  2  0  0  0  0
  8 13  1  0  0  0  0
  9 10  2  0  0  0  0
 10 11  1  0  0  0  0
 10 14  1  0  0  0  0
 11 18  1  0  0  0  0
 12 15  1  0  0  0  0
 13 16  2  0  0  0  0
 15 17  2  0  0  0  0
 16 17  1  0  0  0  0
M  END
>  <DATABASE_ID>
DB00263

>  <DATABASE_NAME>
drugbank

>  <SMILES>
S(=O)(=O)(Nc1onc(C)c1C)c1ccc(N)cc1

>  <INCHI_IDENTIFIER>
InChI=1S/C11H13N3O3S/c1-7-8(2)13-17-11(7)14-18(15,16)10-5-3-9(12)4-6-10/h3-6,14H,12H2,1-2H3

>  <INCHI_KEY>
InChIKey=NHUHCSRWZMLRLA-UHFFFAOYSA-N

>  <JCHEM_ACCEPTOR_COUNT>
4

>  <JCHEM_AVERAGE_POLARIZABILITY>
26.92609

>  <JCHEM_BIOAVAILABILITY>
1

>  <JCHEM_DONOR_COUNT>
2

>  <JCHEM_EXACT_MASS>
267.06775

>  <JCHEM_FORMAL_CHARGE>
0

>  <JCHEM_FORMULA>
C11H13N3O3S

>  <JCHEM_GHOSE_FILTER>
1

>  <JCHEM_IUPAC>
4-amino-N-(dimethyl-1,2-oxazol-5-yl)benzene-1-sulfonamide

>  <ALOGPS_LOGP>
1.14

>  <JCHEM_LOGP>
0.73061311

>  <ALOGPS_LOGS>
-2.9300001

>  <JCHEM_MASS>
267.30399

>  <JCHEM_MDDR_LIKE_RULE>
0

>  <JCHEM_NUMBER_OF_RINGS>
2

>  <JCHEM_PHYSIOLOGICAL_CHARGE>
-1

>  <JCHEM_PKA_STRONGEST_ACIDIC>
5.804935

>  <JCHEM_PKA_STRONGEST_BASIC>
2.1668007

>  <JCHEM_POLAR_SURFACE_AREA>
98.220001

>  <JCHEM_REFRACTIVITY>
67.918602

>  <JCHEM_ROTATABLE_BOND_COUNT>
2

>  <JCHEM_RULE_OF_FIVE>
1

>  <ALOGPS_SOLUBILITY>
3.13e-01 g/l

>  <JCHEM_TRADITIONAL_IUPAC>
sulfisoxazole

>  <JCHEM_VEBER_RULE>
0

>  <DRUGBANK_ID>
DB00263

>  <DRUG_GROUPS>
approved

>  <GENERIC_NAME>
Sulfisoxazole

>  <SYNONYMS>
Sulfadimethylisoxazole; Sulfafurazol; Sulfafurazole; Sulfaisoxazole; Sulfasoxazole; Sulfisonazole; Sulfisoxasole; Sulfisoxazol; Sulfofurazole; Sulphafurazol; Sulphafurazole; Sulphaisoxazole; Sulphisoxazol; Sulphofurazole

>  <BRANDS>
Gantrisin; Neoxazol

>  <SALTS>
Acetyl sulfisoxazole

$$$$
Metoprolol
 OpenBabel02121510022D

 19 19  0  0  1  0  0  0  0  0999 V2000
    3.0790    0.6190    0.0000 O   0  0  0  0  0  0  0  0  0  0  0  0
    3.0790    2.2690    0.0000 O   0  0  0  0  0  0  0  0  0  0  0  0
    2.3640   -3.9190    0.0000 O   0  0  0  0  0  0  0  0  0  0  0  0
    4.5080    3.0940    0.0000 N   0  0  0  0  0  0  0  0  0  0  0  0
    3.7940    1.8560    0.0000 C   0  0  3  0  0  0  0  0  0  0  0  0
    4.5080    2.2690    0.0000 C   0  0  0  0  0  0  0  0  0  0  0  0
    5.2220    3.5060    0.0000 C   0  0  0  0  0  0  0  0  0  0  0  0
    3.7940    1.0310    0.0000 C   0  0  0  0  0  0  0  0  0  0  0  0
    5.9370    3.0940    0.0000 C   0  0  0  0  0  0  0  0  0  0  0  0
    5.2220    4.3310    0.0000 C   0  0  0  0  0  0  0  0  0  0  0  0
    3.0790   -0.2060    0.0000 C   0  0  0  0  0  0  0  0  0  0  0  0
    3.0790   -1.8560    0.0000 C   0  0  0  0  0  0  0  0  0  0  0  0
    3.0790   -2.6810    0.0000 C   0  0  0  0  0  0  0  0  0  0  0  0
    2.3640   -0.6190    0.0000 C   0  0  0  0  0  0  0  0  0  0  0  0
    3.7940   -0.6190    0.0000 C   0  0  0  0  0  0  0  0  0  0  0  0
    2.3640   -1.4440    0.0000 C   0  0  0  0  0  0  0  0  0  0  0  0
    3.7940   -1.4440    0.0000 C   0  0  0  0  0  0  0  0  0  0  0  0
    2.3640   -3.0940    0.0000 C   0  0  0  0  0  0  0  0  0  0  0  0
    1.6500   -4.3310    0.0000 C   0  0  0  0  0  0  0  0  0  0  0  0
  1  8  1  0  0  0  0
  1 11  1  0  0  0  0
  2  5  1  0  0  0  0
  3 18  1  0  0  0  0
  3 19  1  0  0  0  0
  4  6  1  0  0  0  0
  4  7  1  0  0  0  0
  5  6  1  0  0  0  0
  5  8  1  0  0  0  0
  7  9  1  0  0  0  0
  7 10  1  0  0  0  0
 11 14  2  0  0  0  0
 11 15  1  0  0  0  0
 12 13  1  0  0  0  0
 12 16  2  0  0  0  0
 12 17  1  0  0  0  0
 13 18  1  0  0  0  0
 14 16  1  0  0  0  0
 15 17  2  0  0  0  0
M  END
>  <DATABASE_ID>
DB00264

>  <DATABASE_NAME>
drugbank

>  <SMILES>
O(CC(O)CNC(C)C)c1ccc(cc1)CCOC

>  <INCHI_IDENTIFIER>
InChI=1S/C15H25NO3/c1-12(2)16-10-14(17)11-19-15-6-4-13(5-7-15)8-9-18-3/h4-7,12,14,16-17H,8-11H2,1-3H3

>  <INCHI_KEY>
InChIKey=IUBSYMUCCVWXPE-UHFFFAOYSA-N

>  <JCHEM_ACCEPTOR_COUNT>
4

>  <JCHEM_AVERAGE_POLARIZABILITY>
31.895891

>  <JCHEM_BIOAVAILABILITY>
1

>  <JCHEM_DONOR_COUNT>
2

>  <JCHEM_EXACT_MASS>
267.18344

>  <JCHEM_FORMAL_CHARGE>
0

>  <JCHEM_FORMULA>
C15H25NO3

>  <JCHEM_GHOSE_FILTER>
1

>  <JCHEM_IUPAC>
{2-hydroxy-3-[4-(2-methoxyethyl)phenoxy]propyl}(propan-2-yl)amine

>  <ALOGPS_LOGP>
1.8

>  <JCHEM_LOGP>
1.7586571

>  <ALOGPS_LOGS>
-2.8199999

>  <JCHEM_MASS>
267.36389

>  <JCHEM_MDDR_LIKE_RULE>
0

>  <JCHEM_NUMBER_OF_RINGS>
1

>  <JCHEM_PHYSIOLOGICAL_CHARGE>
1

>  <JCHEM_PKA_STRONGEST_ACIDIC>
14.087972

>  <JCHEM_PKA_STRONGEST_BASIC>
9.6661663

>  <JCHEM_POLAR_SURFACE_AREA>
50.720001

>  <JCHEM_REFRACTIVITY>
76.697601

>  <JCHEM_ROTATABLE_BOND_COUNT>
9

>  <JCHEM_RULE_OF_FIVE>
1

>  <ALOGPS_SOLUBILITY>
4.02e-01 g/l

>  <JCHEM_TRADITIONAL_IUPAC>
metoprolol

>  <JCHEM_VEBER_RULE>
0

>  <DRUGBANK_ID>
DB00264

>  <DRUG_GROUPS>
approved; investigational

>  <GENERIC_NAME>
Metoprolol

>  <SYNONYMS>
(RS)-Metoprolol; 1-(isopropylamino)-3-[4-(2-methoxyethyl)phenoxy]propan-2-ol

>  <BRANDS>
Corvitol; Dutoprol; Lopressor; Minax; Selokeen; TOPROL; Toprol-XL; TOPROLXL

>  <SALTS>
Metoprolol succinate; Metoprolol tartrate

$$$$
Dicoumarol
 OpenBabel02121510022D

 25 28  0  0  0  0  0  0  0  0999 V2000
    3.7290   -3.9240    0.0000 C   0  0  0  0  0  0  0  0  0  0  0  0
    3.0150   -3.5120    0.0000 C   0  0  0  0  0  0  0  0  0  0  0  0
    3.7290   -4.7440    0.0000 C   0  0  0  0  0  0  0  0  0  0  0  0
    4.7050   -3.3670    0.0000 C   0  0  0  0  0  0  0  0  0  0  0  0
    3.0150   -5.1560    0.0000 O   0  0  0  0  0  0  0  0  0  0  0  0
    2.3110   -3.9240    0.0000 C   0  0  0  0  0  0  0  0  0  0  0  0
    2.3110   -4.7440    0.0000 C   0  0  0  0  0  0  0  0  0  0  0  0
    4.4440   -5.1610    0.0000 O   0  0  0  0  0  0  0  0  0  0  0  0
    3.0150   -2.6870    0.0000 O   0  0  0  0  0  0  0  0  0  0  0  0
    1.5960   -3.5120    0.0000 C   0  0  0  0  0  0  0  0  0  0  0  0
    1.5960   -5.1560    0.0000 C   0  0  0  0  0  0  0  0  0  0  0  0
    0.8820   -3.9240    0.0000 C   0  0  0  0  0  0  0  0  0  0  0  0
    0.8820   -4.7440    0.0000 C   0  0  0  0  0  0  0  0  0  0  0  0
    5.6800   -3.9240    0.0000 C   0  0  0  0  0  0  0  0  0  0  0  0
    6.3950   -3.5120    0.0000 C   0  0  0  0  0  0  0  0  0  0  0  0
    5.6800   -4.7440    0.0000 C   0  0  0  0  0  0  0  0  0  0  0  0
    6.3950   -5.1560    0.0000 O   0  0  0  0  0  0  0  0  0  0  0  0
    7.0980   -3.9240    0.0000 C   0  0  0  0  0  0  0  0  0  0  0  0
    7.0980   -4.7440    0.0000 C   0  0  0  0  0  0  0  0  0  0  0  0
    4.9660   -5.1610    0.0000 O   0  0  0  0  0  0  0  0  0  0  0  0
    6.3950   -2.6870    0.0000 O   0  0  0  0  0  0  0  0  0  0  0  0
    7.8130   -3.5120    0.0000 C   0  0  0  0  0  0  0  0  0  0  0  0
    7.8130   -5.1560    0.0000 C   0  0  0  0  0  0  0  0  0  0  0  0
    8.5280   -3.9240    0.0000 C   0  0  0  0  0  0  0  0  0  0  0  0
    8.5280   -4.7440    0.0000 C   0  0  0  0  0  0  0  0  0  0  0  0
  1  2  2  0  0  0  0
  1  3  1  0  0  0  0
  1  4  1  0  0  0  0
  2  6  1  0  0  0  0
  2  9  1  0  0  0  0
  3  5  1  0  0  0  0
  3  8  2  0  0  0  0
  4 14  1  0  0  0  0
  5  7  1  0  0  0  0
  6  7  2  0  0  0  0
  6 10  1  0  0  0  0
  7 11  1  0  0  0  0
 10 12  2  0  0  0  0
 11 13  2  0  0  0  0
 12 13  1  0  0  0  0
 14 15  2  0  0  0  0
 14 16  1  0  0  0  0
 15 18  1  0  0  0  0
 15 21  1  0  0  0  0
 16 17  1  0  0  0  0
 16 20  2  0  0  0  0
 17 19  1  0  0  0  0
 18 19  2  0  0  0  0
 18 22  1  0  0  0  0
 19 23  1  0  0  0  0
 22 24  2  0  0  0  0
 23 25  2  0  0  0  0
 24 25  1  0  0  0  0
M  END
>  <DATABASE_ID>
DB00266

>  <DATABASE_NAME>
drugbank

>  <SMILES>
O1c2c(cccc2)C(O)=C(CC=2C(Oc3c(cccc3)C=2O)=O)C1=O

>  <INCHI_IDENTIFIER>
InChI=1S/C19H12O6/c20-16-10-5-1-3-7-14(10)24-18(22)12(16)9-13-17(21)11-6-2-4-8-15(11)25-19(13)23/h1-8,20-21H,9H2

>  <INCHI_KEY>
InChIKey=DOBMPNYZJYQDGZ-UHFFFAOYSA-N

>  <JCHEM_ACCEPTOR_COUNT>
4

>  <JCHEM_AVERAGE_POLARIZABILITY>
32.31506

>  <JCHEM_BIOAVAILABILITY>
1

>  <JCHEM_DONOR_COUNT>
2

>  <JCHEM_EXACT_MASS>
336.06339

>  <JCHEM_FORMAL_CHARGE>
0

>  <JCHEM_FORMULA>
C19H12O6

>  <JCHEM_GHOSE_FILTER>
0

>  <JCHEM_IUPAC>
4-hydroxy-3-[(4-hydroxy-2-oxo-2H-chromen-3-yl)methyl]-2H-chromen-2-one

>  <ALOGPS_LOGP>
1.54

>  <JCHEM_LOGP>
-1.5927894

>  <ALOGPS_LOGS>
-3.71

>  <JCHEM_MASS>
336.29501

>  <JCHEM_MDDR_LIKE_RULE>
0

>  <JCHEM_NUMBER_OF_RINGS>
4

>  <JCHEM_PHYSIOLOGICAL_CHARGE>
-1

>  <JCHEM_PKA>
10.354004

>  <JCHEM_PKA_STRONGEST_ACIDIC>
-11.942616

>  <JCHEM_PKA_STRONGEST_BASIC>
-3.1001246

>  <JCHEM_POLAR_SURFACE_AREA>
93.059998

>  <JCHEM_REFRACTIVITY>
89.192802

>  <JCHEM_ROTATABLE_BOND_COUNT>
2

>  <JCHEM_RULE_OF_FIVE>
1

>  <ALOGPS_SOLUBILITY>
6.62e-02 g/l

>  <JCHEM_TRADITIONAL_IUPAC>
dicumarol

>  <JCHEM_VEBER_RULE>
0

>  <DRUGBANK_ID>
DB00266

>  <DRUG_GROUPS>
approved

>  <GENERIC_NAME>
Dicoumarol

>  <SYNONYMS>
bis-3,3'-(4-hydroxycoumarinyl)methane; bis-hydroxycoumarin; di-(4-hydroxy-3-coumarinyl)methane; Dicumarol

$$$$
Ropinirole
 OpenBabel02121510022D

 19 20  0  0  0  0  0  0  0  0999 V2000
    6.5950   -1.6940    0.0000 O   0  0  0  0  0  0  0  0  0  0  0  0
    3.0790    1.1940    0.0000 N   0  0  0  0  0  0  0  0  0  0  0  0
    5.2890   -2.3580    0.0000 N   0  0  0  0  0  0  0  0  0  0  0  0
    3.0790    0.3690    0.0000 C   0  0  0  0  0  0  0  0  0  0  0  0
    3.7940   -0.0440    0.0000 C   0  0  0  0  0  0  0  0  0  0  0  0
    3.7940   -0.8690    0.0000 C   0  0  0  0  0  0  0  0  0  0  0  0
    3.7940    1.6060    0.0000 C   0  0  0  0  0  0  0  0  0  0  0  0
    2.3640    1.6060    0.0000 C   0  0  0  0  0  0  0  0  0  0  0  0
    4.5080   -1.2810    0.0000 C   0  0  0  0  0  0  0  0  0  0  0  0
    5.2890   -1.0300    0.0000 C   0  0  0  0  0  0  0  0  0  0  0  0
    4.5080   -2.1060    0.0000 C   0  0  0  0  0  0  0  0  0  0  0  0
    3.7940    2.4310    0.0000 C   0  0  0  0  0  0  0  0  0  0  0  0
    2.3640    2.4310    0.0000 C   0  0  0  0  0  0  0  0  0  0  0  0
    3.0790   -1.2810    0.0000 C   0  0  0  0  0  0  0  0  0  0  0  0
    5.7700   -1.6940    0.0000 C   0  0  0  0  0  0  0  0  0  0  0  0
    3.7940   -2.5190    0.0000 C   0  0  0  0  0  0  0  0  0  0  0  0
    3.0790   -2.1060    0.0000 C   0  0  0  0  0  0  0  0  0  0  0  0
    4.5080    2.8440    0.0000 C   0  0  0  0  0  0  0  0  0  0  0  0
    1.6500    2.8440    0.0000 C   0  0  0  0  0  0  0  0  0  0  0  0
  1 15  2  0  0  0  0
  2  4  1  0  0  0  0
  2  7  1  0  0  0  0
  2  8  1  0  0  0  0
  3 11  1  0  0  0  0
  3 15  1  0  0  0  0
  4  5  1  0  0  0  0
  5  6  1  0  0  0  0
  6  9  2  0  0  0  0
  6 14  1  0  0  0  0
  7 12  1  0  0  0  0
  8 13  1  0  0  0  0
  9 10  1  0  0  0  0
  9 11  1  0  0  0  0
 10 15  1  0  0  0  0
 11 16  2  0  0  0  0
 12 18  1  0  0  0  0
 13 19  1  0  0  0  0
 14 17  2  0  0  0  0
 16 17  1  0  0  0  0
M  END
>  <DATABASE_ID>
DB00268

>  <DATABASE_NAME>
drugbank

>  <SMILES>
O=C1Nc2c(C1)c(ccc2)CCN(CCC)CCC

>  <INCHI_IDENTIFIER>
InChI=1S/C16H24N2O/c1-3-9-18(10-4-2)11-8-13-6-5-7-15-14(13)12-16(19)17-15/h5-7H,3-4,8-12H2,1-2H3,(H,17,19)

>  <INCHI_KEY>
InChIKey=UHSKFQJFRQCDBE-UHFFFAOYSA-N

>  <JCHEM_ACCEPTOR_COUNT>
2

>  <JCHEM_AVERAGE_POLARIZABILITY>
31.193499

>  <JCHEM_BIOAVAILABILITY>
1

>  <JCHEM_DONOR_COUNT>
1

>  <JCHEM_EXACT_MASS>
260.18887

>  <JCHEM_FORMAL_CHARGE>
0

>  <JCHEM_FORMULA>
C16H24N2O

>  <JCHEM_GHOSE_FILTER>
1

>  <JCHEM_IUPAC>
4-[2-(dipropylamino)ethyl]-2,3-dihydro-1H-indol-2-one

>  <ALOGPS_LOGP>
3.1600001

>  <JCHEM_LOGP>
3.0607688

>  <ALOGPS_LOGS>
-2.8699999

>  <JCHEM_MASS>
260.3746

>  <JCHEM_MDDR_LIKE_RULE>
0

>  <JCHEM_NUMBER_OF_RINGS>
2

>  <JCHEM_PHYSIOLOGICAL_CHARGE>
1

>  <JCHEM_PKA>
15.55065

>  <JCHEM_PKA_STRONGEST_ACIDIC>
13.235698

>  <JCHEM_PKA_STRONGEST_BASIC>
10.172217

>  <JCHEM_POLAR_SURFACE_AREA>
32.34

>  <JCHEM_REFRACTIVITY>
81.427803

>  <JCHEM_ROTATABLE_BOND_COUNT>
7

>  <JCHEM_RULE_OF_FIVE>
1

>  <ALOGPS_SOLUBILITY>
3.53e-01 g/l

>  <JCHEM_TRADITIONAL_IUPAC>
ropinirole

>  <JCHEM_VEBER_RULE>
1

>  <DRUGBANK_ID>
DB00268

>  <DRUG_GROUPS>
approved; investigational

>  <GENERIC_NAME>
Ropinirole

>  <SYNONYMS>
Ropinirol; Ropinirolum

>  <BRANDS>
Adartrel; ReQuip; ReQuip CR; ReQuip XL; Ronirol

>  <SALTS>
Ropinirole Hydrochloride

$$$$
Isradipine
 OpenBabel02121510022D

 27 29  0  0  1  0  0  0  0  0999 V2000
    3.0790    0.5690    0.0000 O   0  0  0  0  0  0  0  0  0  0  0  0
    7.3660    0.5690    0.0000 O   0  0  0  0  0  0  0  0  0  0  0  0
    3.7940   -0.6680    0.0000 O   0  0  0  0  0  0  0  0  0  0  0  0
    7.1990   -1.4930    0.0000 O   0  0  0  0  0  0  0  0  0  0  0  0
    7.3660   -0.2560    0.0000 O   0  0  0  0  0  0  0  0  0  0  0  0
    5.2220    1.8070    0.0000 N   0  0  0  0  0  0  0  0  0  0  0  0
    6.7180   -0.8290    0.0000 N   0  0  0  0  0  0  0  0  0  0  0  0
    6.7180   -2.1570    0.0000 N   0  0  0  0  0  0  0  0  0  0  0  0
    5.2220    0.1570    0.0000 C   0  0  3  0  0  0  0  0  0  0  0  0
    4.5080    0.5690    0.0000 C   0  0  0  0  0  0  0  0  0  0  0  0
    5.9370    0.5690    0.0000 C   0  0  0  0  0  0  0  0  0  0  0  0
    5.2220   -0.6680    0.0000 C   0  0  0  0  0  0  0  0  0  0  0  0
    4.5080    1.3940    0.0000 C   0  0  0  0  0  0  0  0  0  0  0  0
    5.9370    1.3940    0.0000 C   0  0  0  0  0  0  0  0  0  0  0  0
    5.9370   -1.0810    0.0000 C   0  0  0  0  0  0  0  0  0  0  0  0
    3.7940    0.1570    0.0000 C   0  0  0  0  0  0  0  0  0  0  0  0
    4.5080   -1.0810    0.0000 C   0  0  0  0  0  0  0  0  0  0  0  0
    3.7940    1.8070    0.0000 C   0  0  0  0  0  0  0  0  0  0  0  0
    6.6520    0.1570    0.0000 C   0  0  0  0  0  0  0  0  0  0  0  0
    6.6520    1.8070    0.0000 C   0  0  0  0  0  0  0  0  0  0  0  0
    5.9370   -1.9060    0.0000 C   0  0  0  0  0  0  0  0  0  0  0  0
    4.5080   -1.9060    0.0000 C   0  0  0  0  0  0  0  0  0  0  0  0
    5.2220   -2.3180    0.0000 C   0  0  0  0  0  0  0  0  0  0  0  0
    2.3640    0.1570    0.0000 C   0  0  0  0  0  0  0  0  0  0  0  0
    1.6500    0.5690    0.0000 C   0  0  0  0  0  0  0  0  0  0  0  0
    2.3640   -0.6680    0.0000 C   0  0  0  0  0  0  0  0  0  0  0  0
    8.0800    0.1570    0.0000 C   0  0  0  0  0  0  0  0  0  0  0  0
  1 16  1  0  0  0  0
  1 24  1  0  0  0  0
  2 19  1  0  0  0  0
  2 27  1  0  0  0  0
  3 16  2  0  0  0  0
  4  7  1  0  0  0  0
  4  8  1  0  0  0  0
  5 19  2  0  0  0  0
  6 13  1  0  0  0  0
  6 14  1  0  0  0  0
  7 15  2  0  0  0  0
  8 21  2  0  0  0  0
  9 10  1  0  0  0  0
  9 11  1  0  0  0  0
  9 12  1  0  0  0  0
 10 13  2  0  0  0  0
 10 16  1  0  0  0  0
 11 14  2  0  0  0  0
 11 19  1  0  0  0  0
 12 15  1  0  0  0  0
 12 17  2  0  0  0  0
 13 18  1  0  0  0  0
 14 20  1  0  0  0  0
 15 21  1  0  0  0  0
 17 22  1  0  0  0  0
 21 23  1  0  0  0  0
 22 23  2  0  0  0  0
 24 25  1  0  0  0  0
 24 26  1  0  0  0  0
M  END
>  <DATABASE_ID>
DB00270

>  <DATABASE_NAME>
drugbank

>  <SMILES>
o1nc2c(n1)cccc2C1C(C(OC(C)C)=O)=C(NC(C)=C1C(OC)=O)C

>  <INCHI_IDENTIFIER>
InChI=1S/C19H21N3O5/c1-9(2)26-19(24)15-11(4)20-10(3)14(18(23)25-5)16(15)12-7-6-8-13-17(12)22-27-21-13/h6-9,16,20H,1-5H3

>  <INCHI_KEY>
InChIKey=HMJIYCCIJYRONP-UHFFFAOYSA-N

>  <JCHEM_ACCEPTOR_COUNT>
5

>  <JCHEM_AVERAGE_POLARIZABILITY>
37.386818

>  <JCHEM_BIOAVAILABILITY>
1

>  <JCHEM_DONOR_COUNT>
1

>  <JCHEM_EXACT_MASS>
371.14813

>  <JCHEM_FORMAL_CHARGE>
0

>  <JCHEM_FORMULA>
C19H21N3O5

>  <JCHEM_GHOSE_FILTER>
1

>  <JCHEM_IUPAC>
3-methyl 5-propan-2-yl 4-(2,1,3-benzoxadiazol-4-yl)-2,6-dimethyl-1,4-dihydropyridine-3,5-dicarboxylate

>  <ALOGPS_LOGP>
3

>  <JCHEM_LOGP>
1.9989158

>  <ALOGPS_LOGS>
-3.21

>  <JCHEM_MASS>
371.38708

>  <JCHEM_MDDR_LIKE_RULE>
1

>  <JCHEM_NUMBER_OF_RINGS>
3

>  <JCHEM_PHYSIOLOGICAL_CHARGE>
0

>  <JCHEM_PKA_STRONGEST_BASIC>
5.3298993

>  <JCHEM_POLAR_SURFACE_AREA>
103.55

>  <JCHEM_REFRACTIVITY>
100.0842

>  <JCHEM_ROTATABLE_BOND_COUNT>
6

>  <JCHEM_RULE_OF_FIVE>
1

>  <ALOGPS_SOLUBILITY>
2.28e-01 g/l

>  <JCHEM_TRADITIONAL_IUPAC>
isradipine

>  <JCHEM_VEBER_RULE>
0

>  <DRUGBANK_ID>
DB00270

>  <DRUG_GROUPS>
approved

>  <GENERIC_NAME>
Isradipine

>  <SYNONYMS>
Isradipino; Isradipinum

>  <BRANDS>
Clivoten; DynaCirc; Dynacirc CR; Esradin; Lomir; Prescal

$$$$
Diatrizoate
 OpenBabel02121510022D

 20 20  0  0  0  0  0  0  0  0999 V2000
    2.3640    0.4120    0.0000 I   0  0  0  0  0  0  0  0  0  0  0  0
    5.2220    0.4120    0.0000 I   0  0  0  0  0  0  0  0  0  0  0  0
    3.7940   -2.0620    0.0000 I   0  0  0  0  0  0  0  0  0  0  0  0
    5.2220   -2.0620    0.0000 O   0  0  0  0  0  0  0  0  0  0  0  0
    5.9370   -0.8250    0.0000 O   0  0  0  0  0  0  0  0  0  0  0  0
    3.0790   -2.4750    0.0000 O   0  0  0  0  0  0  0  0  0  0  0  0
    5.2220    1.2380    0.0000 O   0  0  0  0  0  0  0  0  0  0  0  0
    2.3640   -1.2380    0.0000 N   0  0  0  0  0  0  0  0  0  0  0  0
    3.7940    1.2380    0.0000 N   0  0  0  0  0  0  0  0  0  0  0  0
    3.0790   -0.8250    0.0000 C   0  0  0  0  0  0  0  0  0  0  0  0
    3.7940    0.4120    0.0000 C   0  0  0  0  0  0  0  0  0  0  0  0
    3.0790    0.0000    0.0000 C   0  0  0  0  0  0  0  0  0  0  0  0
    4.5080   -0.8250    0.0000 C   0  0  0  0  0  0  0  0  0  0  0  0
    4.5080    0.0000    0.0000 C   0  0  0  0  0  0  0  0  0  0  0  0
    3.7940   -1.2380    0.0000 C   0  0  0  0  0  0  0  0  0  0  0  0
    5.2220   -1.2380    0.0000 C   0  0  0  0  0  0  0  0  0  0  0  0
    2.3640   -2.0620    0.0000 C   0  0  0  0  0  0  0  0  0  0  0  0
    4.5080    1.6500    0.0000 C   0  0  0  0  0  0  0  0  0  0  0  0
    1.6500   -2.4750    0.0000 C   0  0  0  0  0  0  0  0  0  0  0  0
    4.5080    2.4750    0.0000 C   0  0  0  0  0  0  0  0  0  0  0  0
  1 12  1  0  0  0  0
  2 14  1  0  0  0  0
  3 15  1  0  0  0  0
  4 16  1  0  0  0  0
  5 16  2  0  0  0  0
  6 17  2  0  0  0  0
  7 18  2  0  0  0  0
  8 10  1  0  0  0  0
  8 17  1  0  0  0  0
  9 11  1  0  0  0  0
  9 18  1  0  0  0  0
 10 12  1  0  0  0  0
 10 15  2  0  0  0  0
 11 12  2  0  0  0  0
 11 14  1  0  0  0  0
 13 14  2  0  0  0  0
 13 15  1  0  0  0  0
 13 16  1  0  0  0  0
 17 19  1  0  0  0  0
 18 20  1  0  0  0  0
M  END
>  <DATABASE_ID>
DB00271

>  <DATABASE_NAME>
drugbank

>  <SMILES>
Ic1c(C(O)=O)c(I)c(NC(=O)C)c(I)c1NC(=O)C

>  <INCHI_IDENTIFIER>
InChI=1S/C11H9I3N2O4/c1-3(17)15-9-6(12)5(11(19)20)7(13)10(8(9)14)16-4(2)18/h1-2H3,(H,15,17)(H,16,18)(H,19,20)

>  <INCHI_KEY>
InChIKey=YVPYQUNUQOZFHG-UHFFFAOYSA-N

>  <JCHEM_ACCEPTOR_COUNT>
4

>  <JCHEM_AVERAGE_POLARIZABILITY>
38.428272

>  <JCHEM_BIOAVAILABILITY>
1

>  <JCHEM_DONOR_COUNT>
3

>  <JCHEM_EXACT_MASS>
613.76965

>  <JCHEM_FORMAL_CHARGE>
0

>  <JCHEM_FORMULA>
C11H9I3N2O4

>  <JCHEM_GHOSE_FILTER>
0

>  <JCHEM_IUPAC>
3,5-diacetamido-2,4,6-triiodobenzoic acid

>  <ALOGPS_LOGP>
2.27

>  <JCHEM_LOGP>
2.8930829

>  <ALOGPS_LOGS>
-3.76

>  <JCHEM_MASS>
613.91357

>  <JCHEM_MDDR_LIKE_RULE>
0

>  <JCHEM_NUMBER_OF_RINGS>
1

>  <JCHEM_PHYSIOLOGICAL_CHARGE>
-1

>  <JCHEM_PKA>
11.841682

>  <JCHEM_PKA_STRONGEST_ACIDIC>
2.16767

>  <JCHEM_PKA_STRONGEST_BASIC>
-4.2404609

>  <JCHEM_POLAR_SURFACE_AREA>
95.5

>  <JCHEM_REFRACTIVITY>
103.1277

>  <JCHEM_ROTATABLE_BOND_COUNT>
3

>  <JCHEM_RULE_OF_FIVE>
0

>  <ALOGPS_SOLUBILITY>
1.07e-01 g/l

>  <JCHEM_TRADITIONAL_IUPAC>
diatrizoate

>  <JCHEM_VEBER_RULE>
0

>  <DRUGBANK_ID>
DB00271

>  <DRUG_GROUPS>
approved

>  <GENERIC_NAME>
Diatrizoate

>  <SYNONYMS>
3,5-diacetamido-2,4,6-triiodobenzoic acid; Amidotrizoate; Amidotrizoic Acid; Diatrizoic acid

>  <BRANDS>
Cardiografin; Gastrografin; Hypaque; MD-GASTROVIEW; Odiston; Urovison; Urovist

>  <SALTS>
Diatrizoate meglumine; Diatrizoate sodium

$$$$
Topiramate
 OpenBabel02121510022D

 25 27  0  0  1  0  0  0  0  0999 V2000
    7.1520    0.8040    0.0000 S   0  0  0  0  0  0  0  0  0  0  0  0
    4.4670   -0.8230    0.0000 O   0  0  0  0  0  0  0  0  0  0  0  0
    5.0090    1.2170    0.0000 O   0  0  0  0  0  0  0  0  0  0  0  0
    5.6170   -0.1590    0.0000 O   0  0  0  0  0  0  0  0  0  0  0  0
    2.7990    0.1400    0.0000 O   0  0  0  0  0  0  0  0  0  0  0  0
    2.7990    1.4680    0.0000 O   0  0  0  0  0  0  0  0  0  0  0  0
    6.4380    0.3920    0.0000 O   0  0  0  0  0  0  0  0  0  0  0  0
    7.5650    0.0900    0.0000 O   0  0  0  0  0  0  0  0  0  0  0  0
    6.7400    1.5190    0.0000 O   0  0  0  0  0  0  0  0  0  0  0  0
    7.8670    1.2170    0.0000 N   0  0  0  0  0  0  0  0  0  0  0  0
    4.2940   -0.0210    0.0000 C   0  0  1  0  0  0  0  0  0  0  0  0
    3.5800    0.3920    0.0000 C   0  0  1  0  0  0  0  0  0  0  0  0
    5.0090    0.3920    0.0000 C   0  0  1  0  0  0  0  0  0  0  0  0
    3.5800    1.2170    0.0000 C   0  0  1  0  0  0  0  0  0  0  0  0
    4.2940    1.6290    0.0000 C   0  0  0  0  0  0  0  0  0  0  0  0
    5.2820   -0.9080    0.0000 C   0  0  0  0  0  0  0  0  0  0  0  0
    2.3180    0.8040    0.0000 C   0  0  0  0  0  0  0  0  0  0  0  0
    5.7230    0.8040    0.0000 C   0  0  0  0  0  0  0  0  0  0  0  0
    6.0360   -1.2430    0.0000 C   0  0  0  0  0  0  0  0  0  0  0  0
    5.1960   -1.7280    0.0000 C   0  0  0  0  0  0  0  0  0  0  0  0
    1.6500    0.3190    0.0000 C   0  0  0  0  0  0  0  0  0  0  0  0
    1.6500    1.2890    0.0000 C   0  0  0  0  0  0  0  0  0  0  0  0
    3.7610   -0.4100    0.0000 H   0  0  0  0  0  0  0  0  0  0  0  0
    3.5100   -0.2650    0.0000 H   0  0  0  0  0  0  0  0  0  0  0  0
    3.5100    1.8730    0.0000 H   0  0  0  0  0  0  0  0  0  0  0  0
  1  7  1  0  0  0  0
  1  8  2  0  0  0  0
  1  9  2  0  0  0  0
  1 10  1  0  0  0  0
  2 11  1  0  0  0  0
  2 16  1  0  0  0  0
  3 13  1  0  0  0  0
  3 15  1  0  0  0  0
  4 13  1  0  0  0  0
  4 16  1  0  0  0  0
  5 12  1  0  0  0  0
  5 17  1  0  0  0  0
  6 14  1  0  0  0  0
  6 17  1  0  0  0  0
  7 18  1  0  0  0  0
 11 12  1  0  0  0  0
 11 13  1  0  0  0  0
 11 23  1  6  0  0  0
 12 14  1  0  0  0  0
 12 24  1  1  0  0  0
 13 18  1  6  0  0  0
 14 15  1  0  0  0  0
 14 25  1  1  0  0  0
 16 19  1  0  0  0  0
 16 20  1  0  0  0  0
 17 21  1  0  0  0  0
 17 22  1  0  0  0  0
M  END
>  <DATABASE_ID>
DB00273

>  <DATABASE_NAME>
drugbank

>  <SMILES>
S(OC[C@]12OC(O[C@H]1[C@@H]1OC(O[C@@H]1CO2)(C)C)(C)C)(=O)(=O)N

>  <INCHI_IDENTIFIER>
InChI=1S/C12H21NO8S/c1-10(2)18-7-5-16-12(6-17-22(13,14)15)9(8(7)19-10)20-11(3,4)21-12/h7-9H,5-6H2,1-4H3,(H2,13,14,15)/t7-,8-,9+,12+/m1/s1

>  <INCHI_KEY>
InChIKey=KJADKKWYZYXHBB-XBWDGYHZSA-N

>  <JCHEM_ACCEPTOR_COUNT>
8

>  <JCHEM_AVERAGE_POLARIZABILITY>
32.420986

>  <JCHEM_BIOAVAILABILITY>
1

>  <JCHEM_DONOR_COUNT>
1

>  <JCHEM_EXACT_MASS>
339.09879

>  <JCHEM_FORMAL_CHARGE>
0

>  <JCHEM_FORMULA>
C12H21NO8S

>  <JCHEM_GHOSE_FILTER>
1

>  <JCHEM_IUPAC>
[(1R,2S,6S,9R)-4,4,11,11-tetramethyl-3,5,7,10,12-pentaoxatricyclo[7.3.0.0^{2,6}]dodecan-6-yl]methyl sulfamate

>  <ALOGPS_LOGP>
1.29

>  <JCHEM_LOGP>
0.12695974

>  <ALOGPS_LOGS>
-1.7

>  <JCHEM_MASS>
339.362

>  <JCHEM_MDDR_LIKE_RULE>
0

>  <JCHEM_NUMBER_OF_RINGS>
3

>  <JCHEM_PHYSIOLOGICAL_CHARGE>
0

>  <JCHEM_PKA_STRONGEST_ACIDIC>
11.087058

>  <JCHEM_PKA_STRONGEST_BASIC>
-3.7230396

>  <JCHEM_POLAR_SURFACE_AREA>
115.54

>  <JCHEM_REFRACTIVITY>
72.302002

>  <JCHEM_ROTATABLE_BOND_COUNT>
3

>  <JCHEM_RULE_OF_FIVE>
1

>  <ALOGPS_SOLUBILITY>
6.80e+00 g/l

>  <JCHEM_TRADITIONAL_IUPAC>
topiramate

>  <JCHEM_VEBER_RULE>
0

>  <DRUGBANK_ID>
DB00273

>  <DRUG_GROUPS>
approved

>  <GENERIC_NAME>
Topiramate

>  <SYNONYMS>
Tipiramate; Topiramatum

>  <BRANDS>
QUDEXY; Topamax; Trokendi XR

$$$$
Olmesartan
 OpenBabel02121510022D

 33 36  0  0  0  0  0  0  0  0999 V2000
    0.0000    0.8250    0.0000 C   0  0  0  0  0  0  0  0  0  0  0  0
    0.7140    0.4120    0.0000 C   0  0  0  0  0  0  0  0  0  0  0  0
    0.7140   -0.4120    0.0000 C   0  0  0  0  0  0  0  0  0  0  0  0
    0.0000   -0.8250    0.0000 C   0  0  0  0  0  0  0  0  0  0  0  0
   -0.7140   -0.4120    0.0000 C   0  0  0  0  0  0  0  0  0  0  0  0
   -0.7140    0.4120    0.0000 N   0  0  0  0  0  0  0  0  0  0  0  0
    0.7140    2.0620    0.0000 C   0  0  0  0  0  0  0  0  0  0  0  0
    0.0000    1.6500    0.0000 C   0  0  0  0  0  0  0  0  0  0  0  0
    1.4290    0.8250    0.0000 C   0  0  0  0  0  0  0  0  0  0  0  0
    1.4290    1.6500    0.0000 C   0  0  0  0  0  0  0  0  0  0  0  0
    0.0000   -1.6500    0.0000 C   0  0  0  0  0  0  0  0  0  0  0  0
    0.7140   -2.0620    0.0000 C   0  0  0  0  0  0  0  0  0  0  0  0
    1.4290   -1.6500    0.0000 C   0  0  0  0  0  0  0  0  0  0  0  0
    1.4290   -0.8250    0.0000 C   0  0  0  0  0  0  0  0  0  0  0  0
   -1.4990    0.6670    0.0000 N   0  0  0  0  0  0  0  0  0  0  0  0
   -1.9840    0.0000    0.0000 N   0  0  0  0  0  0  0  0  0  0  0  0
   -1.4990   -0.6670    0.0000 N   0  0  0  0  0  0  0  0  0  0  0  0
    0.7140    2.8880    0.0000 C   0  0  0  0  0  0  0  0  0  0  0  0
    2.2140    3.0450    0.0000 C   0  0  0  0  0  0  0  0  0  0  0  0
    2.6980    3.7120    0.0000 N   0  0  0  0  0  0  0  0  0  0  0  0
    1.4290    3.3000    0.0000 N   0  0  0  0  0  0  0  0  0  0  0  0
    2.4680    2.2600    0.0000 C   0  0  0  0  0  0  0  0  0  0  0  0
    3.2760    2.0890    0.0000 C   0  0  0  0  0  0  0  0  0  0  0  0
    3.5300    1.3040    0.0000 C   0  0  0  0  0  0  0  0  0  0  0  0
    1.4290    4.1250    0.0000 C   0  0  0  0  0  0  0  0  0  0  0  0
    0.7140    4.5380    0.0000 C   0  0  0  0  0  0  0  0  0  0  0  0
    0.7140    5.3620    0.0000 O   0  0  0  0  0  0  0  0  0  0  0  0
    0.0000    4.1250    0.0000 O   0  0  0  0  0  0  0  0  0  0  0  0
    2.2140    4.3800    0.0000 C   0  0  0  0  0  0  0  0  0  0  0  0
    2.4680    5.1650    0.0000 C   0  0  0  0  0  0  0  0  0  0  0  0
    1.9160    5.7780    0.0000 C   0  0  0  0  0  0  0  0  0  0  0  0
    3.2760    5.3360    0.0000 C   0  0  0  0  0  0  0  0  0  0  0  0
    2.7230    5.9490    0.0000 O   0  0  0  0  0  0  0  0  0  0  0  0
  1  2  1  0  0  0  0
  1  8  2  0  0  0  0
  2  3  1  0  0  0  0
  2  9  2  0  0  0  0
  3  4  1  0  0  0  0
  3 14  2  0  0  0  0
  4  5  1  0  0  0  0
  4 11  2  0  0  0  0
  5  6  1  0  0  0  0
  5 17  2  0  0  0  0
  6 15  1  0  0  0  0
  7  8  1  0  0  0  0
  7 10  2  0  0  0  0
  7 18  1  0  0  0  0
  9 10  1  0  0  0  0
 11 12  1  0  0  0  0
 12 13  2  0  0  0  0
 13 14  1  0  0  0  0
 15 16  2  0  0  0  0
 16 17  1  0  0  0  0
 18 21  1  0  0  0  0
 19 20  2  0  0  0  0
 19 21  1  0  0  0  0
 19 22  1  0  0  0  0
 20 29  1  0  0  0  0
 21 25  1  0  0  0  0
 22 23  1  0  0  0  0
 23 24  1  0  0  0  0
 25 26  1  0  0  0  0
 25 29  2  0  0  0  0
 26 27  2  0  0  0  0
 26 28  1  0  0  0  0
 29 30  1  0  0  0  0
 30 31  1  0  0  0  0
 30 32  1  0  0  0  0
 30 33  1  0  0  0  0
M  END
>  <DATABASE_ID>
DB00275

>  <DATABASE_NAME>
drugbank

>  <SMILES>
OC(C)(C)c1nc(n(Cc2ccc(cc2)-c2ccccc2-c2[nH]nnn2)c1C(O)=O)CCC

>  <INCHI_IDENTIFIER>
InChI=1S/C24H26N6O3/c1-4-7-19-25-21(24(2,3)33)20(23(31)32)30(19)14-15-10-12-16(13-11-15)17-8-5-6-9-18(17)22-26-28-29-27-22/h5-6,8-13,33H,4,7,14H2,1-3H3,(H,31,32)(H,26,27,28,29)

>  <INCHI_KEY>
InChIKey=VTRAEEWXHOVJFV-UHFFFAOYSA-N

>  <JCHEM_ACCEPTOR_COUNT>
7

>  <JCHEM_AVERAGE_POLARIZABILITY>
47.461094

>  <JCHEM_BIOAVAILABILITY>
1

>  <JCHEM_DONOR_COUNT>
3

>  <JCHEM_EXACT_MASS>
446.20663

>  <JCHEM_FORMAL_CHARGE>
0

>  <JCHEM_FORMULA>
C24H26N6O3

>  <JCHEM_GHOSE_FILTER>
0

>  <JCHEM_IUPAC>
4-(2-hydroxypropan-2-yl)-2-propyl-1-({4-[2-(1H-1,2,3,4-tetrazol-5-yl)phenyl]phenyl}methyl)-1H-imidazole-5-carboxylic acid

>  <ALOGPS_LOGP>
2.98

>  <JCHEM_LOGP>
2.1421838

>  <ALOGPS_LOGS>
-4.6300001

>  <JCHEM_MASS>
446.50159

>  <JCHEM_MDDR_LIKE_RULE>
1

>  <JCHEM_NUMBER_OF_RINGS>
4

>  <JCHEM_PHYSIOLOGICAL_CHARGE>
-2

>  <JCHEM_PKA>
4.9605436

>  <JCHEM_PKA_STRONGEST_ACIDIC>
0.91035819

>  <JCHEM_PKA_STRONGEST_BASIC>
5.5694485

>  <JCHEM_POLAR_SURFACE_AREA>
129.81

>  <JCHEM_REFRACTIVITY>
137.3237

>  <JCHEM_ROTATABLE_BOND_COUNT>
8

>  <JCHEM_RULE_OF_FIVE>
1

>  <ALOGPS_SOLUBILITY>
1.05e-02 g/l

>  <JCHEM_TRADITIONAL_IUPAC>
olmesartan

>  <JCHEM_VEBER_RULE>
0

>  <DRUGBANK_ID>
DB00275

>  <DRUG_GROUPS>
approved; investigational

>  <GENERIC_NAME>
Olmesartan

>  <SYNONYMS>
Olmesartan medoxomil

>  <BRANDS>
Benicar; Erastapex; Golme; Olmetec; WinBP

$$$$
Theophylline
 OpenBabel02121510022D

 13 14  0  0  0  0  0  0  0  0999 V2000
    3.0790    1.6500    0.0000 O   0  0  0  0  0  0  0  0  0  0  0  0
    1.6500   -0.8250    0.0000 O   0  0  0  0  0  0  0  0  0  0  0  0
    3.0790   -0.8250    0.0000 N   0  0  0  0  0  0  0  0  0  0  0  0
    2.3640    0.4120    0.0000 N   0  0  0  0  0  0  0  0  0  0  0  0
    4.5740    0.6640    0.0000 N   0  0  0  0  0  0  0  0  0  0  0  0
    4.5740   -0.6640    0.0000 N   0  0  0  0  0  0  0  0  0  0  0  0
    3.7940   -0.4120    0.0000 C   0  0  0  0  0  0  0  0  0  0  0  0
    3.7940    0.4120    0.0000 C   0  0  0  0  0  0  0  0  0  0  0  0
    3.0790    0.8250    0.0000 C   0  0  0  0  0  0  0  0  0  0  0  0
    2.3640   -0.4120    0.0000 C   0  0  0  0  0  0  0  0  0  0  0  0
    3.0790   -1.6500    0.0000 C   0  0  0  0  0  0  0  0  0  0  0  0
    1.6500    0.8250    0.0000 C   0  0  0  0  0  0  0  0  0  0  0  0
    5.0560    0.0000    0.0000 C   0  0  0  0  0  0  0  0  0  0  0  0
  1  9  2  0  0  0  0
  2 10  2  0  0  0  0
  3  7  1  0  0  0  0
  3 10  1  0  0  0  0
  3 11  1  0  0  0  0
  4  9  1  0  0  0  0
  4 10  1  0  0  0  0
  4 12  1  0  0  0  0
  5  8  1  0  0  0  0
  5 13  1  0  0  0  0
  6  7  1  0  0  0  0
  6 13  2  0  0  0  0
  7  8  2  0  0  0  0
  8  9  1  0  0  0  0
M  END
>  <DATABASE_ID>
DB00277

>  <DATABASE_NAME>
drugbank

>  <SMILES>
O=C1N(C)C(=O)N(c2nc[nH]c12)C

>  <INCHI_IDENTIFIER>
InChI=1S/C7H8N4O2/c1-10-5-4(8-3-9-5)6(12)11(2)7(10)13/h3H,1-2H3,(H,8,9)

>  <INCHI_KEY>
InChIKey=ZFXYFBGIUFBOJW-UHFFFAOYSA-N

>  <JCHEM_ACCEPTOR_COUNT>
3

>  <JCHEM_AVERAGE_POLARIZABILITY>
16.8554

>  <JCHEM_BIOAVAILABILITY>
1

>  <JCHEM_DONOR_COUNT>
1

>  <JCHEM_EXACT_MASS>
180.06473

>  <JCHEM_FORMAL_CHARGE>
0

>  <JCHEM_FORMULA>
C7H8N4O2

>  <JCHEM_GHOSE_FILTER>
0

>  <JCHEM_IUPAC>
1,3-dimethyl-2,3,6,7-tetrahydro-1H-purine-2,6-dione

>  <ALOGPS_LOGP>
-0.25999999

>  <JCHEM_LOGP>
-0.76932168

>  <ALOGPS_LOGS>
-0.89999998

>  <JCHEM_MASS>
180.164

>  <JCHEM_MDDR_LIKE_RULE>
0

>  <JCHEM_NUMBER_OF_RINGS>
2

>  <JCHEM_PHYSIOLOGICAL_CHARGE>
0

>  <JCHEM_PKA_STRONGEST_ACIDIC>
7.8151274

>  <JCHEM_PKA_STRONGEST_BASIC>
-0.77711755

>  <JCHEM_POLAR_SURFACE_AREA>
69.300003

>  <JCHEM_REFRACTIVITY>
44.934502

>  <JCHEM_ROTATABLE_BOND_COUNT>
0

>  <JCHEM_RULE_OF_FIVE>
1

>  <ALOGPS_SOLUBILITY>
2.29e+01 g/l

>  <JCHEM_TRADITIONAL_IUPAC>
theophylline

>  <JCHEM_VEBER_RULE>
0

>  <DRUGBANK_ID>
DB00277

>  <DRUG_GROUPS>
approved

>  <GENERIC_NAME>
Theophylline

>  <SYNONYMS>
1,3-dimethyl-7H-purine-2,6-dione; 1,3-dimethylxanthine; Theophyllin; Theophylline Anhydrous

>  <BRANDS>
Elixophyllin; Quibron-T; Respbid; Slo-Bid; Theo 24; Theo-24; Theo-Dur; Theodur G; Theolair; Theophylline(Anhydrous); Uniphyl

$$$$
Liothyronine
 OpenBabel02121510022D

 23 24  0  0  1  0  0  0  0  0999 V2000
    4.9510    0.8250    0.0000 I   0  0  0  0  0  0  0  0  0  0  0  0
    2.0930    0.8250    0.0000 I   0  0  0  0  0  0  0  0  0  0  0  0
    6.3800    1.6500    0.0000 I   0  0  0  0  0  0  0  0  0  0  0  0
    3.5220    1.6500    0.0000 O   0  0  0  0  0  0  0  0  0  0  0  0
    2.0930   -3.3000    0.0000 O   0  0  0  0  0  0  0  0  0  0  0  0
    3.5220   -3.3000    0.0000 O   0  0  0  0  0  0  0  0  0  0  0  0
    6.3800    3.3000    0.0000 O   0  0  0  0  0  0  0  0  0  0  0  0
    2.0930   -1.6500    0.0000 N   0  0  0  0  0  0  0  0  0  0  0  0
    3.5220   -1.6500    0.0000 C   0  0  0  0  0  0  0  0  0  0  0  0
    2.8080   -2.0620    0.0000 C   0  0  1  0  0  0  0  0  0  0  0  0
    3.5220   -0.8250    0.0000 C   0  0  0  0  0  0  0  0  0  0  0  0
    2.8080   -0.4120    0.0000 C   0  0  0  0  0  0  0  0  0  0  0  0
    4.2360   -0.4120    0.0000 C   0  0  0  0  0  0  0  0  0  0  0  0
    3.5220    0.8250    0.0000 C   0  0  0  0  0  0  0  0  0  0  0  0
    4.2360    0.4120    0.0000 C   0  0  0  0  0  0  0  0  0  0  0  0
    2.8080    0.4120    0.0000 C   0  0  0  0  0  0  0  0  0  0  0  0
    2.8080   -2.8880    0.0000 C   0  0  0  0  0  0  0  0  0  0  0  0
    4.2360    2.0620    0.0000 C   0  0  0  0  0  0  0  0  0  0  0  0
    4.9510    1.6500    0.0000 C   0  0  0  0  0  0  0  0  0  0  0  0
    4.2360    2.8880    0.0000 C   0  0  0  0  0  0  0  0  0  0  0  0
    5.6660    2.0620    0.0000 C   0  0  0  0  0  0  0  0  0  0  0  0
    4.9510    3.3000    0.0000 C   0  0  0  0  0  0  0  0  0  0  0  0
    5.6660    2.8880    0.0000 C   0  0  0  0  0  0  0  0  0  0  0  0
  1 15  1  0  0  0  0
  2 16  1  0  0  0  0
  3 21  1  0  0  0  0
  4 14  1  0  0  0  0
  4 18  1  0  0  0  0
  5 17  1  0  0  0  0
  6 17  2  0  0  0  0
  7 23  1  0  0  0  0
  9 11  1  0  0  0  0
 10  9  1  1  0  0  0
 10  8  1  0  0  0  0
 10 17  1  0  0  0  0
 11 12  1  0  0  0  0
 11 13  2  0  0  0  0
 12 16  2  0  0  0  0
 13 15  1  0  0  0  0
 14 15  2  0  0  0  0
 14 16  1  0  0  0  0
 18 19  2  0  0  0  0
 18 20  1  0  0  0  0
 19 21  1  0  0  0  0
 20 22  2  0  0  0  0
 21 23  2  0  0  0  0
 22 23  1  0  0  0  0
M  END
>  <DATABASE_ID>
DB00279

>  <DATABASE_NAME>
drugbank

>  <SMILES>
Ic1cc(cc(I)c1Oc1cc(I)c(O)cc1)C[C@H](N)C(O)=O

>  <INCHI_IDENTIFIER>
InChI=1S/C15H12I3NO4/c16-9-6-8(1-2-13(9)20)23-14-10(17)3-7(4-11(14)18)5-12(19)15(21)22/h1-4,6,12,20H,5,19H2,(H,21,22)/t12-/m0/s1

>  <INCHI_KEY>
InChIKey=AUYYCJSJGJYCDS-LBPRGKRZSA-N

>  <JCHEM_ACCEPTOR_COUNT>
4

>  <JCHEM_AVERAGE_POLARIZABILITY>
43.920597

>  <JCHEM_BIOAVAILABILITY>
1

>  <JCHEM_DONOR_COUNT>
3

>  <JCHEM_EXACT_MASS>
650.79004

>  <JCHEM_FORMAL_CHARGE>
0

>  <JCHEM_FORMULA>
C15H12I3NO4

>  <JCHEM_GHOSE_FILTER>
0

>  <JCHEM_IUPAC>
(2S)-2-amino-3-[4-(4-hydroxy-3-iodophenoxy)-3,5-diiodophenyl]propanoic acid

>  <ALOGPS_LOGP>
0.81999999

>  <JCHEM_LOGP>
2.7985051

>  <ALOGPS_LOGS>
-4.52

>  <JCHEM_MASS>
650.97351

>  <JCHEM_MDDR_LIKE_RULE>
0

>  <JCHEM_NUMBER_OF_RINGS>
2

>  <JCHEM_PHYSIOLOGICAL_CHARGE>
0

>  <JCHEM_PKA>
8.491128

>  <JCHEM_PKA_STRONGEST_ACIDIC>
0.30246884

>  <JCHEM_PKA_STRONGEST_BASIC>
9.4823046

>  <JCHEM_POLAR_SURFACE_AREA>
92.779999

>  <JCHEM_REFRACTIVITY>
113.4255

>  <JCHEM_ROTATABLE_BOND_COUNT>
5

>  <JCHEM_RULE_OF_FIVE>
0

>  <ALOGPS_SOLUBILITY>
1.95e-02 g/l

>  <JCHEM_TRADITIONAL_IUPAC>
liothyronine

>  <JCHEM_VEBER_RULE>
0

>  <DRUGBANK_ID>
DB00279

>  <DRUG_GROUPS>
approved

>  <GENERIC_NAME>
Liothyronine

>  <SYNONYMS>
3,3',5-triiodo-L-thyronine; 3,5,3'-Triiodo-L-thyronine; 3,5,3'-Triiodothyronine; L-3,5,3'-Triiodothyronine; L-T3; O-(4-hydroxy-3-iodophenyl)-3,5-diiodo-L-tyrosine; T3; Triiodothyronine

>  <BRANDS>
Cytomel; Tertroxin; Triostat

>  <SALTS>
Liothyronine Sodium

$$$$
Disopyramide
 OpenBabel02121510022D

 25 26  0  0  1  0  0  0  0  0999 V2000
   -3.4470    0.0880    0.0000 N   0  0  0  0  0  0  0  0  0  0  0  0
   -4.1620   -0.3240    0.0000 C   0  0  0  0  0  0  0  0  0  0  0  0
   -4.1620   -1.1490    0.0000 C   0  0  0  0  0  0  0  0  0  0  0  0
   -3.4470   -1.5620    0.0000 C   0  0  0  0  0  0  0  0  0  0  0  0
   -2.7330   -1.1490    0.0000 C   0  0  0  0  0  0  0  0  0  0  0  0
   -2.7330   -0.3240    0.0000 C   0  0  0  0  0  0  0  0  0  0  0  0
   -2.0180    0.0880    0.0000 C   0  0  3  0  0  0  0  0  0  0  0  0
   -1.3040   -0.3240    0.0000 C   0  0  0  0  0  0  0  0  0  0  0  0
   -0.5890    0.0880    0.0000 C   0  0  0  0  0  0  0  0  0  0  0  0
    0.1250   -0.3240    0.0000 N   0  0  0  0  0  0  0  0  0  0  0  0
    0.8400    0.0880    0.0000 C   0  0  0  0  0  0  0  0  0  0  0  0
    1.5540   -0.3240    0.0000 C   0  0  0  0  0  0  0  0  0  0  0  0
    0.8400    0.9130    0.0000 C   0  0  0  0  0  0  0  0  0  0  0  0
    0.1250   -1.1490    0.0000 C   0  0  0  0  0  0  0  0  0  0  0  0
   -0.5890   -1.5620    0.0000 C   0  0  0  0  0  0  0  0  0  0  0  0
    0.8400   -1.5620    0.0000 C   0  0  0  0  0  0  0  0  0  0  0  0
   -2.0180    0.9130    0.0000 C   0  0  0  0  0  0  0  0  0  0  0  0
   -1.3040    1.3260    0.0000 N   0  0  0  0  0  0  0  0  0  0  0  0
   -1.9890   -2.1210    0.0000 C   0  0  0  0  0  0  0  0  0  0  0  0
   -2.7330    1.3260    0.0000 O   0  0  0  0  0  0  0  0  0  0  0  0
   -2.7030   -2.5340    0.0000 C   0  0  0  0  0  0  0  0  0  0  0  0
   -2.7030   -3.3590    0.0000 C   0  0  0  0  0  0  0  0  0  0  0  0
   -1.9890   -3.7720    0.0000 C   0  0  0  0  0  0  0  0  0  0  0  0
   -1.2740   -3.3590    0.0000 C   0  0  0  0  0  0  0  0  0  0  0  0
   -1.2740   -2.5340    0.0000 C   0  0  0  0  0  0  0  0  0  0  0  0
  1  2  1  0  0  0  0
  1  6  2  0  0  0  0
  2  3  2  0  0  0  0
  3  4  1  0  0  0  0
  4  5  2  0  0  0  0
  5  6  1  0  0  0  0
  6  7  1  0  0  0  0
  7  8  1  0  0  0  0
  7 17  1  0  0  0  0
  7 19  1  0  0  0  0
  8  9  1  0  0  0  0
  9 10  1  0  0  0  0
 10 11  1  0  0  0  0
 10 14  1  0  0  0  0
 11 12  1  0  0  0  0
 11 13  1  0  0  0  0
 14 15  1  0  0  0  0
 14 16  1  0  0  0  0
 17 18  1  0  0  0  0
 17 20  2  0  0  0  0
 19 21  1  0  0  0  0
 19 25  2  0  0  0  0
 21 22  2  0  0  0  0
 22 23  1  0  0  0  0
 23 24  2  0  0  0  0
 24 25  1  0  0  0  0
M  END
>  <DATABASE_ID>
DB00280

>  <DATABASE_NAME>
drugbank

>  <SMILES>
O=C(N)C(CCN(C(C)C)C(C)C)(c1ccccc1)c1ncccc1

>  <INCHI_IDENTIFIER>
InChI=1/C21H29N3O/c1-16(2)24(17(3)4)15-13-21(20(22)25,18-10-6-5-7-11-18)19-12-8-9-14-23-19/h5-12,14,16-17H,13,15H2,1-4H3,(H2,22,25)

>  <INCHI_KEY>
InChIKey=UVTNFZQICZKOEM-UHFFFAOYNA-N

>  <JCHEM_ACCEPTOR_COUNT>
3

>  <JCHEM_AVERAGE_POLARIZABILITY>
38.818756

>  <JCHEM_BIOAVAILABILITY>
1

>  <JCHEM_DONOR_COUNT>
1

>  <JCHEM_EXACT_MASS>
339.23105

>  <JCHEM_FORMAL_CHARGE>
0

>  <JCHEM_FORMULA>
C21H29N3O

>  <JCHEM_GHOSE_FILTER>
1

>  <JCHEM_IUPAC>
4-[bis(propan-2-yl)amino]-2-phenyl-2-(pyridin-2-yl)butanamide

>  <ALOGPS_LOGP>
3.21

>  <JCHEM_LOGP>
3.4684365

>  <ALOGPS_LOGS>
-3.8399999

>  <JCHEM_MASS>
339.47449

>  <JCHEM_MDDR_LIKE_RULE>
0

>  <JCHEM_NUMBER_OF_RINGS>
2

>  <JCHEM_PHYSIOLOGICAL_CHARGE>
1

>  <JCHEM_PKA_STRONGEST_ACIDIC>
16.190355

>  <JCHEM_PKA_STRONGEST_BASIC>
10.419003

>  <JCHEM_POLAR_SURFACE_AREA>
59.220001

>  <JCHEM_REFRACTIVITY>
102.3002

>  <JCHEM_ROTATABLE_BOND_COUNT>
8

>  <JCHEM_RULE_OF_FIVE>
1

>  <ALOGPS_SOLUBILITY>
4.93e-02 g/l

>  <JCHEM_TRADITIONAL_IUPAC>
disopyramide

>  <JCHEM_VEBER_RULE>
0

>  <DRUGBANK_ID>
DB00280

>  <DRUG_GROUPS>
approved

>  <GENERIC_NAME>
Disopyramide

>  <SYNONYMS>
Disopiramida; Disopyramidum

>  <BRANDS>
Dicorantil; Isorythm; Lispine; Norpace; Ritmodan; Rythmodan

>  <SALTS>
Disopyramide phosphate

$$$$
Lidocaine
 OpenBabel02121510022D

 17 17  0  0  0  0  0  0  0  0999 V2000
    4.5080   -0.2060    0.0000 O   0  0  0  0  0  0  0  0  0  0  0  0
    4.5080    1.4440    0.0000 N   0  0  0  0  0  0  0  0  0  0  0  0
    3.0790   -0.2060    0.0000 N   0  0  0  0  0  0  0  0  0  0  0  0
    3.7940    1.0310    0.0000 C   0  0  0  0  0  0  0  0  0  0  0  0
    5.2220    1.0310    0.0000 C   0  0  0  0  0  0  0  0  0  0  0  0
    4.5080    2.2690    0.0000 C   0  0  0  0  0  0  0  0  0  0  0  0
    3.0790   -1.0310    0.0000 C   0  0  0  0  0  0  0  0  0  0  0  0
    3.7940    0.2060    0.0000 C   0  0  0  0  0  0  0  0  0  0  0  0
    3.7940   -1.4440    0.0000 C   0  0  0  0  0  0  0  0  0  0  0  0
    2.3640   -1.4440    0.0000 C   0  0  0  0  0  0  0  0  0  0  0  0
    5.9370    1.4440    0.0000 C   0  0  0  0  0  0  0  0  0  0  0  0
    5.2220    2.6810    0.0000 C   0  0  0  0  0  0  0  0  0  0  0  0
    3.7940   -2.2690    0.0000 C   0  0  0  0  0  0  0  0  0  0  0  0
    2.3640   -2.2690    0.0000 C   0  0  0  0  0  0  0  0  0  0  0  0
    4.5080   -1.0310    0.0000 C   0  0  0  0  0  0  0  0  0  0  0  0
    1.6500   -1.0310    0.0000 C   0  0  0  0  0  0  0  0  0  0  0  0
    3.0790   -2.6810    0.0000 C   0  0  0  0  0  0  0  0  0  0  0  0
  1  8  2  0  0  0  0
  2  4  1  0  0  0  0
  2  5  1  0  0  0  0
  2  6  1  0  0  0  0
  3  7  1  0  0  0  0
  3  8  1  0  0  0  0
  4  8  1  0  0  0  0
  5 11  1  0  0  0  0
  6 12  1  0  0  0  0
  7  9  2  0  0  0  0
  7 10  1  0  0  0  0
  9 13  1  0  0  0  0
  9 15  1  0  0  0  0
 10 14  2  0  0  0  0
 10 16  1  0  0  0  0
 13 17  2  0  0  0  0
 14 17  1  0  0  0  0
M  END
>  <DATABASE_ID>
DB00281

>  <DATABASE_NAME>
drugbank

>  <SMILES>
O=C(Nc1c(cccc1C)C)CN(CC)CC

>  <INCHI_IDENTIFIER>
InChI=1S/C14H22N2O/c1-5-16(6-2)10-13(17)15-14-11(3)8-7-9-12(14)4/h7-9H,5-6,10H2,1-4H3,(H,15,17)

>  <INCHI_KEY>
InChIKey=NNJVILVZKWQKPM-UHFFFAOYSA-N

>  <JCHEM_ACCEPTOR_COUNT>
2

>  <JCHEM_AVERAGE_POLARIZABILITY>
27.76561

>  <JCHEM_BIOAVAILABILITY>
1

>  <JCHEM_DONOR_COUNT>
1

>  <JCHEM_EXACT_MASS>
234.17322

>  <JCHEM_FORMAL_CHARGE>
0

>  <JCHEM_FORMULA>
C14H22N2O

>  <JCHEM_GHOSE_FILTER>
1

>  <JCHEM_IUPAC>
2-(diethylamino)-N-(2,6-dimethylphenyl)acetamide

>  <ALOGPS_LOGP>
1.8099999

>  <JCHEM_LOGP>
2.8429134

>  <ALOGPS_LOGS>
-2.5999999

>  <JCHEM_MASS>
234.3373

>  <JCHEM_MDDR_LIKE_RULE>
0

>  <JCHEM_NUMBER_OF_RINGS>
1

>  <JCHEM_PHYSIOLOGICAL_CHARGE>
1

>  <JCHEM_PKA_STRONGEST_ACIDIC>
13.775423

>  <JCHEM_PKA_STRONGEST_BASIC>
7.7545047

>  <JCHEM_POLAR_SURFACE_AREA>
32.34

>  <JCHEM_REFRACTIVITY>
73.929604

>  <JCHEM_ROTATABLE_BOND_COUNT>
5

>  <JCHEM_RULE_OF_FIVE>
1

>  <ALOGPS_SOLUBILITY>
5.93e-01 g/l

>  <JCHEM_TRADITIONAL_IUPAC>
lidocaine

>  <JCHEM_VEBER_RULE>
1

>  <DRUGBANK_ID>
DB00281

>  <DRUG_GROUPS>
approved

>  <GENERIC_NAME>
Lidocaine

>  <SYNONYMS>
2-(Diethylamino)-2',6'-acetoxylidide; 2-(Diethylamino)-N-(2,6-dimethylphenyl)acetamide; alpha-diethylamino-2,6-dimethylacetanilide; Lignocaine; α-diethylamino-2,6-dimethylacetanilide

>  <BRANDS>
After Burn Double Strength Gel; After Burn Double Strength Spray; After Burn Gel; After Burn Spray; Akten; Alphacaine; Anestacon; Anestacon Jelly; DermaFlex; Dilocaine; Esracaine; L-Caine; Laryng-O-Jet; Lidoderm; Lidoject-1; Lidoject-2; Norwood Sunburn Spray; Solarcaine; Xylocaine; Xylocaine-MPF; Xylocard; Zilactin-L; Zingo

>  <SALTS>
Lidocaine hydrochloride

$$$$
Clemastine
 OpenBabel02121510022D

 24 26  0  0  1  0  0  0  0  0999 V2000
    2.4750   -3.0170    0.0000 Cl  0  0  0  0  0  0  0  0  0  0  0  0
    3.3000    0.2830    0.0000 O   0  0  0  0  0  0  0  0  0  0  0  0
    5.7710    1.7980    0.0000 N   0  0  0  0  0  0  0  0  0  0  0  0
    4.9500    1.7120    0.0000 C   0  0  2  0  0  0  0  0  0  0  0  0
    4.6150    2.4650    0.0000 C   0  0  0  0  0  0  0  0  0  0  0  0
    5.2280    3.0170    0.0000 C   0  0  0  0  0  0  0  0  0  0  0  0
    5.9420    2.6050    0.0000 C   0  0  0  0  0  0  0  0  0  0  0  0
    4.5380    0.9970    0.0000 C   0  0  0  0  0  0  0  0  0  0  0  0
    3.7130    0.9970    0.0000 C   0  0  0  0  0  0  0  0  0  0  0  0
    6.3230    1.1850    0.0000 C   0  0  0  0  0  0  0  0  0  0  0  0
    2.4750    0.2830    0.0000 C   0  0  1  0  0  0  0  0  0  0  0  0
    2.4750   -0.5420    0.0000 C   0  0  0  0  0  0  0  0  0  0  0  0
    2.4750    1.1080    0.0000 C   0  0  0  0  0  0  0  0  0  0  0  0
    1.6500    0.2830    0.0000 C   0  0  0  0  0  0  0  0  0  0  0  0
    1.7610   -0.9550    0.0000 C   0  0  0  0  0  0  0  0  0  0  0  0
    3.1900   -0.9550    0.0000 C   0  0  0  0  0  0  0  0  0  0  0  0
    3.1900    1.5200    0.0000 C   0  0  0  0  0  0  0  0  0  0  0  0
    1.7610    1.5200    0.0000 C   0  0  0  0  0  0  0  0  0  0  0  0
    1.7610   -1.7800    0.0000 C   0  0  0  0  0  0  0  0  0  0  0  0
    3.1900   -1.7800    0.0000 C   0  0  0  0  0  0  0  0  0  0  0  0
    3.1900    2.3450    0.0000 C   0  0  0  0  0  0  0  0  0  0  0  0
    1.7610    2.3450    0.0000 C   0  0  0  0  0  0  0  0  0  0  0  0
    2.4750   -2.1920    0.0000 C   0  0  0  0  0  0  0  0  0  0  0  0
    2.4750    2.7580    0.0000 C   0  0  0  0  0  0  0  0  0  0  0  0
  1 23  1  0  0  0  0
  2  9  1  0  0  0  0
  3  4  1  0  0  0  0
  3  7  1  0  0  0  0
  3 10  1  0  0  0  0
  4  5  1  0  0  0  0
  4  8  1  1  0  0  0
  5  6  1  0  0  0  0
  6  7  1  0  0  0  0
  8  9  1  0  0  0  0
 11  2  1  6  0  0  0
 11 12  1  0  0  0  0
 11 13  1  0  0  0  0
 11 14  1  0  0  0  0
 12 15  1  0  0  0  0
 12 16  2  0  0  0  0
 13 17  2  0  0  0  0
 13 18  1  0  0  0  0
 15 19  2  0  0  0  0
 16 20  1  0  0  0  0
 17 21  1  0  0  0  0
 18 22  2  0  0  0  0
 19 23  1  0  0  0  0
 20 23  2  0  0  0  0
 21 24  2  0  0  0  0
 22 24  1  0  0  0  0
M  END
>  <DATABASE_ID>
DB00283

>  <DATABASE_NAME>
drugbank

>  <SMILES>
Clc1ccc(cc1)[C@@](OCC[C@@H]1N(CCC1)C)(C)c1ccccc1

>  <INCHI_IDENTIFIER>
InChI=1S/C21H26ClNO/c1-21(17-7-4-3-5-8-17,18-10-12-19(22)13-11-18)24-16-14-20-9-6-15-23(20)2/h3-5,7-8,10-13,20H,6,9,14-16H2,1-2H3/t20-,21-/m1/s1

>  <INCHI_KEY>
InChIKey=YNNUSGIPVFPVBX-NHCUHLMSSA-N

>  <JCHEM_ACCEPTOR_COUNT>
2

>  <JCHEM_AVERAGE_POLARIZABILITY>
39.062618

>  <JCHEM_BIOAVAILABILITY>
1

>  <JCHEM_DONOR_COUNT>
0

>  <JCHEM_EXACT_MASS>
343.17029

>  <JCHEM_FORMAL_CHARGE>
0

>  <JCHEM_FORMULA>
C21H26ClNO

>  <JCHEM_GHOSE_FILTER>
1

>  <JCHEM_IUPAC>
(2R)-2-{2-[(1R)-1-(4-chlorophenyl)-1-phenylethoxy]ethyl}-1-methylpyrrolidine

>  <ALOGPS_LOGP>
5.29

>  <JCHEM_LOGP>
4.9233332

>  <ALOGPS_LOGS>
-5.9299998

>  <JCHEM_MASS>
343.89001

>  <JCHEM_MDDR_LIKE_RULE>
1

>  <JCHEM_NUMBER_OF_RINGS>
3

>  <JCHEM_PHYSIOLOGICAL_CHARGE>
1

>  <JCHEM_PKA_STRONGEST_BASIC>
9.5512447

>  <JCHEM_POLAR_SURFACE_AREA>
12.47

>  <JCHEM_REFRACTIVITY>
101.6476

>  <JCHEM_ROTATABLE_BOND_COUNT>
6

>  <JCHEM_RULE_OF_FIVE>
1

>  <ALOGPS_SOLUBILITY>
4.05e-04 g/l

>  <JCHEM_TRADITIONAL_IUPAC>
clemastine

>  <JCHEM_VEBER_RULE>
1

>  <DRUGBANK_ID>
DB00283

>  <DRUG_GROUPS>
approved

>  <GENERIC_NAME>
Clemastine

>  <SYNONYMS>
Clemastina; Clemastinum

>  <BRANDS>
Agasten; Allerhist-1; Tavegil; Tavegyl; Tavist; Tavist-1

>  <SALTS>
Clemastine fumarate

$$$$
Acarbose
 OpenBabel02121510022D

 44 47  0  0  1  0  0  0  0  0999 V2000
   14.2150   -7.4050    0.0000 C   0  0  1  0  0  0  0  0  0  0  0  0
   14.6150   -6.6930    0.0000 C   0  0  2  0  0  0  0  0  0  0  0  0
   13.3520   -7.4160    0.0000 O   0  0  0  0  0  0  0  0  0  0  0  0
   14.6300   -8.1120    0.0000 C   0  0  1  0  0  0  0  0  0  0  0  0
   15.4410   -6.6860    0.0000 O   0  0  0  0  0  0  0  0  0  0  0  0
   14.1930   -5.9820    0.0000 C   0  0  0  0  0  0  0  0  0  0  0  0
   12.5290   -7.4230    0.0000 C   0  0  2  0  0  0  0  0  0  0  0  0
   15.4520   -8.1090    0.0000 C   0  0  2  0  0  0  0  0  0  0  0  0
   14.2220   -8.8310    0.0000 O   0  0  0  0  0  0  0  0  0  0  0  0
   15.8640   -7.3940    0.0000 C   0  0  1  0  0  0  0  0  0  0  0  0
   14.6080   -5.2630    0.0000 O   0  0  0  0  0  0  0  0  0  0  0  0
   12.1180   -8.1380    0.0000 C   0  0  1  0  0  0  0  0  0  0  0  0
   12.1060   -6.7150    0.0000 O   0  0  0  0  0  0  0  0  0  0  0  0
   15.8680   -8.8160    0.0000 O   0  0  0  0  0  0  0  0  0  0  0  0
   16.6860   -7.3820    0.0000 O   0  0  0  0  0  0  0  0  0  0  0  0
   11.2950   -8.1460    0.0000 C   0  0  2  0  0  0  0  0  0  0  0  0
   12.5330   -8.8500    0.0000 O   0  0  0  0  0  0  0  0  0  0  0  0
   11.2800   -6.7230    0.0000 C   0  0  1  0  0  0  0  0  0  0  0  0
   17.5350   -7.3640    0.0000 C   0  0  2  0  0  0  0  0  0  0  0  0
   10.8800   -7.4380    0.0000 C   0  0  1  0  0  0  0  0  0  0  0  0
   10.8870   -8.8680    0.0000 O   0  0  0  0  0  0  0  0  0  0  0  0
   10.8580   -6.0110    0.0000 C   0  0  0  0  0  0  0  0  0  0  0  0
   17.9430   -6.6490    0.0000 C   0  0  2  0  0  0  0  0  0  0  0  0
   17.9460   -8.0720    0.0000 C   0  0  1  0  0  0  0  0  0  0  0  0
   10.1170   -7.4790    0.0000 N   0  0  0  0  0  0  0  0  0  0  0  0
   18.7650   -6.6450    0.0000 O   0  0  0  0  0  0  0  0  0  0  0  0
   17.5200   -5.9340    0.0000 C   0  0  0  0  0  0  0  0  0  0  0  0
   18.7730   -8.0640    0.0000 C   0  0  2  0  0  0  0  0  0  0  0  0
   17.5460   -8.7870    0.0000 O   0  0  0  0  0  0  0  0  0  0  0  0
    9.2940   -7.4860    0.0000 C   0  0  1  0  0  0  0  0  0  0  0  0
   19.1880   -7.3490    0.0000 C   0  0  2  0  0  0  0  0  0  0  0  0
   17.9280   -5.2220    0.0000 O   0  0  0  0  0  0  0  0  0  0  0  0
   19.1910   -8.7760    0.0000 O   0  0  0  0  0  0  0  0  0  0  0  0
    8.8750   -6.7750    0.0000 C   0  0  0  0  0  0  0  0  0  0  0  0
    8.8830   -8.2010    0.0000 C   0  0  1  0  0  0  0  0  0  0  0  0
   20.0100   -7.3450    0.0000 O   0  0  0  0  0  0  0  0  0  0  0  0
    8.0490   -6.7820    0.0000 C   0  0  0  0  0  0  0  0  0  0  0  0
    8.0560   -8.2120    0.0000 C   0  0  2  0  0  0  0  0  0  0  0  0
    9.2980   -8.9130    0.0000 O   0  0  0  0  0  0  0  0  0  0  0  0
    7.6410   -7.5050    0.0000 C   0  0  1  0  0  0  0  0  0  0  0  0
    7.6260   -6.0710    0.0000 C   0  0  0  0  0  0  0  0  0  0  0  0
    7.6490   -8.9280    0.0000 O   0  0  0  0  0  0  0  0  0  0  0  0
    6.8190   -7.4940    0.0000 O   0  0  0  0  0  0  0  0  0  0  0  0
    8.0300   -5.3560    0.0000 O   0  0  0  0  0  0  0  0  0  0  0  0
  1  2  1  0  0  0  0
  1  3  1  6  0  0  0
  1  4  1  0  0  0  0
  2  5  1  0  0  0  0
  2  6  1  1  0  0  0
  4  8  1  0  0  0  0
  4  9  1  1  0  0  0
  5 10  1  0  0  0  0
  6 11  1  0  0  0  0
  7  3  1  6  0  0  0
  7 12  1  0  0  0  0
  7 13  1  0  0  0  0
  8 10  1  0  0  0  0
  8 14  1  6  0  0  0
 10 15  1  6  0  0  0
 12 16  1  0  0  0  0
 12 17  1  6  0  0  0
 13 18  1  0  0  0  0
 16 20  1  0  0  0  0
 16 21  1  1  0  0  0
 18 20  1  0  0  0  0
 18 22  1  1  0  0  0
 19 15  1  6  0  0  0
 19 23  1  0  0  0  0
 19 24  1  0  0  0  0
 20 25  1  6  0  0  0
 23 26  1  0  0  0  0
 23 27  1  1  0  0  0
 24 28  1  0  0  0  0
 24 29  1  1  0  0  0
 26 31  1  0  0  0  0
 27 32  1  0  0  0  0
 28 31  1  0  0  0  0
 28 33  1  6  0  0  0
 30 25  1  6  0  0  0
 30 34  1  0  0  0  0
 30 35  1  0  0  0  0
 31 36  1  1  0  0  0
 34 37  2  0  0  0  0
 35 38  1  0  0  0  0
 35 39  1  6  0  0  0
 37 40  1  0  0  0  0
 37 41  1  0  0  0  0
 38 40  1  0  0  0  0
 38 42  1  1  0  0  0
 40 43  1  1  0  0  0
 41 44  1  0  0  0  0
M  END
>  <DATABASE_ID>
DB00284

>  <DATABASE_NAME>
drugbank

>  <SMILES>
O1[C@H](C)[C@@H](N[C@H]2C=C(CO)[C@H](O)[C@H](O)[C@H]2O)[C@H](O)[C@@H](O)[C@H]1O[C@H]1[C@H](O)[C@@H](O)[C@H](O[C@@H]1CO)O[C@H]1[C@H](O)[C@@H](O)[C@@H](O[C@@H]1CO)O

>  <INCHI_IDENTIFIER>
InChI=1S/C25H43NO18/c1-6-11(26-8-2-7(3-27)12(30)15(33)13(8)31)14(32)19(37)24(40-6)43-22-10(5-29)42-25(20(38)17(22)35)44-21-9(4-28)41-23(39)18(36)16(21)34/h2,6,8-39H,3-5H2,1H3/t6-,8+,9-,10-,11-,12+,13+,14+,15+,16-,17-,18-,19-,20-,21-,22-,23-,24-,25-/m1/s1

>  <INCHI_KEY>
InChIKey=XUFXOAAUWZOOIT-JMPDRRIHSA-N

>  <JCHEM_ACCEPTOR_COUNT>
19

>  <JCHEM_AVERAGE_POLARIZABILITY>
62.391514

>  <JCHEM_BIOAVAILABILITY>
0

>  <JCHEM_DONOR_COUNT>
14

>  <JCHEM_EXACT_MASS>
645.24799

>  <JCHEM_FORMAL_CHARGE>
0

>  <JCHEM_FORMULA>
C25H43NO18

>  <JCHEM_GHOSE_FILTER>
0

>  <JCHEM_IUPAC>
(2R,3R,4R,5S,6R)-5-{[(2R,3R,4R,5S,6R)-5-{[(2R,3R,4S,5S,6R)-3,4-dihydroxy-6-methyl-5-{[(1S,4S,5S,6S)-4,5,6-trihydroxy-3-(hydroxymethyl)cyclohex-2-en-1-yl]amino}oxan-2-yl]oxy}-3,4-dihydroxy-6-(hydroxymethyl)oxan-2-yl]oxy}-6-(hydroxymethyl)oxane-2,3,4-triol

>  <ALOGPS_LOGP>
-2.6600001

>  <JCHEM_LOGP>
-7.6145587

>  <ALOGPS_LOGS>
-0.63999999

>  <JCHEM_MASS>
645.6048

>  <JCHEM_MDDR_LIKE_RULE>
1

>  <JCHEM_NUMBER_OF_RINGS>
4

>  <JCHEM_PHYSIOLOGICAL_CHARGE>
1

>  <JCHEM_PKA>
12.005879

>  <JCHEM_PKA_STRONGEST_ACIDIC>
11.225573

>  <JCHEM_PKA_STRONGEST_BASIC>
7.0315952

>  <JCHEM_POLAR_SURFACE_AREA>
321.17001

>  <JCHEM_REFRACTIVITY>
137.6024

>  <JCHEM_ROTATABLE_BOND_COUNT>
9

>  <JCHEM_RULE_OF_FIVE>
0

>  <ALOGPS_SOLUBILITY>
1.48e+02 g/l

>  <JCHEM_TRADITIONAL_IUPAC>
acarbose

>  <JCHEM_VEBER_RULE>
0

>  <DRUGBANK_ID>
DB00284

>  <DRUG_GROUPS>
approved; investigational

>  <GENERIC_NAME>
Acarbose

>  <BRANDS>
Glucobay; Prandase; Precose

$$$$
Venlafaxine
 OpenBabel02121510022D

 20 21  0  0  1  0  0  0  0  0999 V2000
    2.1620    0.1110    0.0000 O   0  0  0  0  0  0  0  0  0  0  0  0
    6.2870    0.1110    0.0000 O   0  0  0  0  0  0  0  0  0  0  0  0
    2.9870    1.5400    0.0000 N   0  0  0  0  0  0  0  0  0  0  0  0
    2.5740   -0.6040    0.0000 C   0  0  0  0  0  0  0  0  0  0  0  0
    2.9870    0.1110    0.0000 C   0  0  3  0  0  0  0  0  0  0  0  0
    1.8600   -1.0160    0.0000 C   0  0  0  0  0  0  0  0  0  0  0  0
    3.2880   -1.0160    0.0000 C   0  0  0  0  0  0  0  0  0  0  0  0
    1.8600   -1.8420    0.0000 C   0  0  0  0  0  0  0  0  0  0  0  0
    3.2880   -1.8420    0.0000 C   0  0  0  0  0  0  0  0  0  0  0  0
    2.5740   -2.2540    0.0000 C   0  0  0  0  0  0  0  0  0  0  0  0
    2.5740    0.8250    0.0000 C   0  0  0  0  0  0  0  0  0  0  0  0
    3.8120    0.1110    0.0000 C   0  0  0  0  0  0  0  0  0  0  0  0
    4.2240    0.8250    0.0000 C   0  0  0  0  0  0  0  0  0  0  0  0
    4.2240   -0.6040    0.0000 C   0  0  0  0  0  0  0  0  0  0  0  0
    2.5740    2.2540    0.0000 C   0  0  0  0  0  0  0  0  0  0  0  0
    3.8120    1.5400    0.0000 C   0  0  0  0  0  0  0  0  0  0  0  0
    5.0490    0.8250    0.0000 C   0  0  0  0  0  0  0  0  0  0  0  0
    5.0490   -0.6040    0.0000 C   0  0  0  0  0  0  0  0  0  0  0  0
    5.4620    0.1110    0.0000 C   0  0  0  0  0  0  0  0  0  0  0  0
    6.6990    0.8250    0.0000 C   0  0  0  0  0  0  0  0  0  0  0  0
  1  4  1  0  0  0  0
  2 19  1  0  0  0  0
  2 20  1  0  0  0  0
  3 11  1  0  0  0  0
  3 15  1  0  0  0  0
  3 16  1  0  0  0  0
  4  5  1  0  0  0  0
  4  6  1  0  0  0  0
  4  7  1  0  0  0  0
  5 11  1  0  0  0  0
  5 12  1  0  0  0  0
  6  8  1  0  0  0  0
  7  9  1  0  0  0  0
  8 10  1  0  0  0  0
  9 10  1  0  0  0  0
 12 13  2  0  0  0  0
 12 14  1  0  0  0  0
 13 17  1  0  0  0  0
 14 18  2  0  0  0  0
 17 19  2  0  0  0  0
 18 19  1  0  0  0  0
M  END
>  <DATABASE_ID>
DB00285

>  <DATABASE_NAME>
drugbank

>  <SMILES>
O(C)c1ccc(cc1)C(CN(C)C)C1(O)CCCCC1

>  <INCHI_IDENTIFIER>
InChI=1S/C17H27NO2/c1-18(2)13-16(17(19)11-5-4-6-12-17)14-7-9-15(20-3)10-8-14/h7-10,16,19H,4-6,11-13H2,1-3H3

>  <INCHI_KEY>
InChIKey=PNVNVHUZROJLTJ-UHFFFAOYSA-N

>  <JCHEM_ACCEPTOR_COUNT>
3

>  <JCHEM_AVERAGE_POLARIZABILITY>
32.331871

>  <JCHEM_BIOAVAILABILITY>
1

>  <JCHEM_DONOR_COUNT>
1

>  <JCHEM_EXACT_MASS>
277.20419

>  <JCHEM_FORMAL_CHARGE>
0

>  <JCHEM_FORMULA>
C17H27NO2

>  <JCHEM_GHOSE_FILTER>
1

>  <JCHEM_IUPAC>
1-[2-(dimethylamino)-1-(4-methoxyphenyl)ethyl]cyclohexan-1-ol

>  <ALOGPS_LOGP>
2.6900001

>  <JCHEM_LOGP>
2.7385228

>  <ALOGPS_LOGS>
-3.0799999

>  <JCHEM_MASS>
277.40179

>  <JCHEM_MDDR_LIKE_RULE>
0

>  <JCHEM_NUMBER_OF_RINGS>
2

>  <JCHEM_PHYSIOLOGICAL_CHARGE>
1

>  <JCHEM_PKA_STRONGEST_ACIDIC>
14.420212

>  <JCHEM_PKA_STRONGEST_BASIC>
8.9079561

>  <JCHEM_POLAR_SURFACE_AREA>
32.700001

>  <JCHEM_REFRACTIVITY>
83.0242

>  <JCHEM_ROTATABLE_BOND_COUNT>
5

>  <JCHEM_RULE_OF_FIVE>
1

>  <ALOGPS_SOLUBILITY>
2.30e-01 g/l

>  <JCHEM_TRADITIONAL_IUPAC>
venlafaxine

>  <JCHEM_VEBER_RULE>
1

>  <DRUGBANK_ID>
DB00285

>  <DRUG_GROUPS>
approved

>  <GENERIC_NAME>
Venlafaxine

>  <BRANDS>
Effexor; Effexor XR; Elafax

>  <SALTS>
Venlafaxine Hydrochloride

$$$$
Conjugated Estrogens
 OpenBabel02121510022D

 28 30  0  0  1  0  0  0  0  0999 V2000
   13.2000  -16.7060    0.0000 C   0  0  0  0  0  0  0  0  0  0  0  0
   13.2000  -17.5310    0.0000 C   0  0  0  0  0  0  0  0  0  0  0  0
   13.9010  -17.9440    0.0000 C   0  0  0  0  0  0  0  0  0  0  0  0
   14.6440  -17.5310    0.0000 C   0  0  0  0  0  0  0  0  0  0  0  0
   14.6440  -16.7060    0.0000 C   0  0  0  0  0  0  0  0  0  0  0  0
   13.9010  -16.2940    0.0000 C   0  0  0  0  0  0  0  0  0  0  0  0
   15.3450  -17.9440    0.0000 C   0  0  0  0  0  0  0  0  0  0  0  0
   16.0460  -17.5310    0.0000 C   0  0  0  0  0  0  0  0  0  0  0  0
   16.0460  -16.7060    0.0000 C   0  0  2  0  0  0  0  0  0  0  0  0
   15.3450  -16.2940    0.0000 C   0  0  2  0  0  0  0  0  0  0  0  0
   16.7890  -16.2940    0.0000 C   0  0  1  0  0  0  0  0  0  0  0  0
   16.7890  -15.4690    0.0000 C   0  0  1  0  0  0  0  0  0  0  0  0
   16.0460  -15.0560    0.0000 C   0  0  0  0  0  0  0  0  0  0  0  0
   15.3450  -15.4690    0.0000 C   0  0  0  0  0  0  0  0  0  0  0  0
   12.4990  -17.9440    0.0000 O   0  0  0  0  0  0  0  0  0  0  0  0
   11.7980  -17.5310    0.0000 S   0  0  0  0  0  0  0  0  0  0  0  0
   11.0550  -17.1190    0.0000 O   0  0  0  0  0  0  0  0  0  0  0  0
   12.2100  -16.8300    0.0000 O   0  0  0  0  0  0  0  0  0  0  0  0
   11.3850  -18.2320    0.0000 O   0  5  0  0  0  0  0  0  0  0  0  0
   16.0460  -15.8810    0.0000 H   0  0  0  0  0  0  0  0  0  0  0  0
   16.7890  -14.6440    0.0000 C   0  0  0  0  0  0  0  0  0  0  0  0
   15.3450  -17.1190    0.0000 H   0  0  0  0  0  0  0  0  0  0  0  0
   16.7890  -17.1190    0.0000 H   0  0  0  0  0  0  0  0  0  0  0  0
   18.2180  -16.2940    0.0000 C   0  0  0  0  0  0  0  0  0  0  0  0
   18.2180  -15.4690    0.0000 C   0  0  0  0  0  0  0  0  0  0  0  0
   17.5030  -15.0560    0.0000 C   0  0  0  0  0  0  0  0  0  0  0  0
   17.5030  -14.2310    0.0000 O   0  0  0  0  0  0  0  0  0  0  0  0
    9.9410  -17.1190    0.0000 Na  0  3  0  0  0 15  0  0  0  0  0  0
  1  2  2  0  0  0  0
  1  6  1  0  0  0  0
  2  3  1  0  0  0  0
  2 15  1  0  0  0  0
  3  4  2  0  0  0  0
  4  5  1  0  0  0  0
  4  7  1  0  0  0  0
  5  6  2  0  0  0  0
  5 10  1  0  0  0  0
  7  8  1  0  0  0  0
  8  9  1  0  0  0  0
  9 10  1  0  0  0  0
  9 11  1  0  0  0  0
  9 20  1  1  0  0  0
 10 14  1  0  0  0  0
 10 22  1  6  0  0  0
 11 12  1  0  0  0  0
 11 23  1  6  0  0  0
 11 24  1  0  0  0  0
 12 13  1  0  0  0  0
 12 21  1  1  0  0  0
 12 26  1  0  0  0  0
 13 14  1  0  0  0  0
 15 16  1  0  0  0  0
 16 17  2  0  0  0  0
 16 18  2  0  0  0  0
 16 19  1  0  0  0  0
 24 25  1  0  0  0  0
 25 26  1  0  0  0  0
 26 27  2  0  0  0  0
M  CHG  2  19  -1  28   1
M  END
>  <DATABASE_ID>
DB00286

>  <DATABASE_NAME>
drugbank

>  <SMILES>
S(Oc1cc2CC[C@H]3[C@@H]4CCC(=O)[C@]4(CC[C@@H]3c2cc1)C)(=O)(=O)[O-].[Na+]

>  <INCHI_IDENTIFIER>
InChI=1S/C18H22O5S.Na/c1-18-9-8-14-13-5-3-12(23-24(20,21)22)10-11(13)2-4-15(14)16(18)6-7-17(18)19;/h3,5,10,14-16H,2,4,6-9H2,1H3,(H,20,21,22);/q;+1/p-1/t14-,15-,16+,18+;/m1./s1

>  <INCHI_KEY>
InChIKey=VUCAHVBMSFIGAI-ZFINNJDLSA-M

>  <JCHEM_ACCEPTOR_COUNT>
4

>  <JCHEM_AVERAGE_POLARIZABILITY>
36.467098

>  <JCHEM_BIOAVAILABILITY>
1

>  <JCHEM_DONOR_COUNT>
0

>  <JCHEM_EXACT_MASS>
372.10074

>  <JCHEM_FORMAL_CHARGE>
0

>  <JCHEM_FORMULA>
C18H21NaO5S

>  <JCHEM_GHOSE_FILTER>
1

>  <JCHEM_IUPAC>
sodium (1S,10R,11S,15S)-15-methyl-14-oxotetracyclo[8.7.0.0^{2,7}.0^{11,15}]heptadeca-2,4,6-trien-5-yl sulfate

>  <ALOGPS_LOGP>
2.75

>  <JCHEM_LOGP>
3.8337157

>  <ALOGPS_LOGS>
-4.9200001

>  <JCHEM_MASS>
372.41101

>  <JCHEM_MDDR_LIKE_RULE>
0

>  <JCHEM_NUMBER_OF_RINGS>
4

>  <JCHEM_PHYSIOLOGICAL_CHARGE>
-1

>  <JCHEM_PKA>
19.957535

>  <JCHEM_PKA_STRONGEST_ACIDIC>
-1.7480068

>  <JCHEM_PKA_STRONGEST_BASIC>
-7.4756527

>  <JCHEM_POLAR_SURFACE_AREA>
83.5

>  <JCHEM_REFRACTIVITY>
87.952499

>  <JCHEM_ROTATABLE_BOND_COUNT>
2

>  <JCHEM_RULE_OF_FIVE>
1

>  <ALOGPS_SOLUBILITY>
4.50e-03 g/l

>  <JCHEM_TRADITIONAL_IUPAC>
sodium estrone 3-sulfate

>  <JCHEM_VEBER_RULE>
0

>  <DRUGBANK_ID>
DB00286

>  <DRUG_GROUPS>
approved

>  <GENERIC_NAME>
Conjugated Estrogens

>  <BRANDS>
Cenestin; ENJUVIA; Premarin; Premarin Vaginal

$$$$
Atomoxetine
 OpenBabel02121510022D

 19 20  0  0  1  0  0  0  0  0999 V2000
    3.0790   -0.2060    0.0000 O   0  0  0  0  0  0  0  0  0  0  0  0
    5.9370   -0.2060    0.0000 N   0  0  0  0  0  0  0  0  0  0  0  0
    3.7940    0.2060    0.0000 C   0  0  2  0  0  0  0  0  0  0  0  0
    4.5080   -0.2060    0.0000 C   0  0  0  0  0  0  0  0  0  0  0  0
    3.7940    1.0310    0.0000 C   0  0  0  0  0  0  0  0  0  0  0  0
    5.2220    0.2060    0.0000 C   0  0  0  0  0  0  0  0  0  0  0  0
    3.0790   -1.0310    0.0000 C   0  0  0  0  0  0  0  0  0  0  0  0
    4.5080    1.4440    0.0000 C   0  0  0  0  0  0  0  0  0  0  0  0
    3.0790    1.4440    0.0000 C   0  0  0  0  0  0  0  0  0  0  0  0
    2.3640   -1.4440    0.0000 C   0  0  0  0  0  0  0  0  0  0  0  0
    4.5080    2.2690    0.0000 C   0  0  0  0  0  0  0  0  0  0  0  0
    3.0790    2.2690    0.0000 C   0  0  0  0  0  0  0  0  0  0  0  0
    3.7940   -1.4440    0.0000 C   0  0  0  0  0  0  0  0  0  0  0  0
    3.7940    2.6810    0.0000 C   0  0  0  0  0  0  0  0  0  0  0  0
    6.6520    0.2060    0.0000 C   0  0  0  0  0  0  0  0  0  0  0  0
    2.3640   -2.2690    0.0000 C   0  0  0  0  0  0  0  0  0  0  0  0
    1.6500   -1.0310    0.0000 C   0  0  0  0  0  0  0  0  0  0  0  0
    3.7940   -2.2690    0.0000 C   0  0  0  0  0  0  0  0  0  0  0  0
    3.0790   -2.6810    0.0000 C   0  0  0  0  0  0  0  0  0  0  0  0
  1  7  1  0  0  0  0
  2  6  1  0  0  0  0
  2 15  1  0  0  0  0
  3  1  1  1  0  0  0
  3  4  1  0  0  0  0
  3  5  1  0  0  0  0
  4  6  1  0  0  0  0
  5  8  2  0  0  0  0
  5  9  1  0  0  0  0
  7 10  1  0  0  0  0
  7 13  2  0  0  0  0
  8 11  1  0  0  0  0
  9 12  2  0  0  0  0
 10 16  2  0  0  0  0
 10 17  1  0  0  0  0
 11 14  2  0  0  0  0
 12 14  1  0  0  0  0
 13 18  1  0  0  0  0
 16 19  1  0  0  0  0
 18 19  2  0  0  0  0
M  END
>  <DATABASE_ID>
DB00289

>  <DATABASE_NAME>
drugbank

>  <SMILES>
O([C@H](CCNC)c1ccccc1)c1ccccc1C

>  <INCHI_IDENTIFIER>
InChI=1S/C17H21NO/c1-14-8-6-7-11-16(14)19-17(12-13-18-2)15-9-4-3-5-10-15/h3-11,17-18H,12-13H2,1-2H3/t17-/m1/s1

>  <INCHI_KEY>
InChIKey=VHGCDTVCOLNTBX-QGZVFWFLSA-N

>  <JCHEM_ACCEPTOR_COUNT>
2

>  <JCHEM_AVERAGE_POLARIZABILITY>
29.793043

>  <JCHEM_BIOAVAILABILITY>
1

>  <JCHEM_DONOR_COUNT>
1

>  <JCHEM_EXACT_MASS>
255.16231

>  <JCHEM_FORMAL_CHARGE>
0

>  <JCHEM_FORMULA>
C17H21NO

>  <JCHEM_GHOSE_FILTER>
1

>  <JCHEM_IUPAC>
methyl[(3R)-3-(2-methylphenoxy)-3-phenylpropyl]amine

>  <ALOGPS_LOGP>
3.95

>  <JCHEM_LOGP>
3.8087924

>  <ALOGPS_LOGS>
-4.8200002

>  <JCHEM_MASS>
255.35471

>  <JCHEM_MDDR_LIKE_RULE>
0

>  <JCHEM_NUMBER_OF_RINGS>
2

>  <JCHEM_PHYSIOLOGICAL_CHARGE>
1

>  <JCHEM_PKA_STRONGEST_BASIC>
9.8031397

>  <JCHEM_POLAR_SURFACE_AREA>
21.26

>  <JCHEM_REFRACTIVITY>
79.434998

>  <JCHEM_ROTATABLE_BOND_COUNT>
6

>  <JCHEM_RULE_OF_FIVE>
1

>  <ALOGPS_SOLUBILITY>
3.90e-03 g/l

>  <JCHEM_TRADITIONAL_IUPAC>
atomoxetine

>  <JCHEM_VEBER_RULE>
1

>  <DRUGBANK_ID>
DB00289

>  <DRUG_GROUPS>
approved

>  <GENERIC_NAME>
Atomoxetine

>  <SYNONYMS>
(-)-Tomoxetine; Tomoxetina; Tomoxetine; Tomoxetinum

>  <BRANDS>
Attentin; Strattera; Tomoxetin

$$$$
Chlorambucil
 OpenBabel02121510022D

 19 19  0  0  0  0  0  0  0  0999 V2000
    2.3640    3.8400    0.0000 Cl  0  0  0  0  0  0  0  0  0  0  0  0
    5.2220    3.8400    0.0000 Cl  0  0  0  0  0  0  0  0  0  0  0  0
    2.3640   -3.5850    0.0000 O   0  0  0  0  0  0  0  0  0  0  0  0
    1.6500   -2.3470    0.0000 O   0  0  0  0  0  0  0  0  0  0  0  0
    3.7940    2.1900    0.0000 N   0  0  0  0  0  0  0  0  0  0  0  0
    3.7940    1.3650    0.0000 C   0  0  0  0  0  0  0  0  0  0  0  0
    3.7940   -1.1100    0.0000 C   0  0  0  0  0  0  0  0  0  0  0  0
    3.7940   -0.2850    0.0000 C   0  0  0  0  0  0  0  0  0  0  0  0
    3.0790   -1.5220    0.0000 C   0  0  0  0  0  0  0  0  0  0  0  0
    3.0790    2.6030    0.0000 C   0  0  0  0  0  0  0  0  0  0  0  0
    4.5080    2.6030    0.0000 C   0  0  0  0  0  0  0  0  0  0  0  0
    3.0790    0.9530    0.0000 C   0  0  0  0  0  0  0  0  0  0  0  0
    4.5080    0.9530    0.0000 C   0  0  0  0  0  0  0  0  0  0  0  0
    3.0790    0.1280    0.0000 C   0  0  0  0  0  0  0  0  0  0  0  0
    4.5080    0.1280    0.0000 C   0  0  0  0  0  0  0  0  0  0  0  0
    3.0790   -2.3470    0.0000 C   0  0  0  0  0  0  0  0  0  0  0  0
    3.0790    3.4280    0.0000 C   0  0  0  0  0  0  0  0  0  0  0  0
    4.5080    3.4280    0.0000 C   0  0  0  0  0  0  0  0  0  0  0  0
    2.3640   -2.7600    0.0000 C   0  0  0  0  0  0  0  0  0  0  0  0
  1 17  1  0  0  0  0
  2 18  1  0  0  0  0
  3 19  1  0  0  0  0
  4 19  2  0  0  0  0
  5  6  1  0  0  0  0
  5 10  1  0  0  0  0
  5 11  1  0  0  0  0
  6 12  2  0  0  0  0
  6 13  1  0  0  0  0
  7  8  1  0  0  0  0
  7  9  1  0  0  0  0
  8 14  2  0  0  0  0
  8 15  1  0  0  0  0
  9 16  1  0  0  0  0
 10 17  1  0  0  0  0
 11 18  1  0  0  0  0
 12 14  1  0  0  0  0
 13 15  2  0  0  0  0
 16 19  1  0  0  0  0
M  END
>  <DATABASE_ID>
DB00291

>  <DATABASE_NAME>
drugbank

>  <SMILES>
ClCCN(CCCl)c1ccc(cc1)CCCC(O)=O

>  <INCHI_IDENTIFIER>
InChI=1S/C14H19Cl2NO2/c15-8-10-17(11-9-16)13-6-4-12(5-7-13)2-1-3-14(18)19/h4-7H,1-3,8-11H2,(H,18,19)

>  <INCHI_KEY>
InChIKey=JCKYGMPEJWAADB-UHFFFAOYSA-N

>  <JCHEM_ACCEPTOR_COUNT>
3

>  <JCHEM_AVERAGE_POLARIZABILITY>
31.9823

>  <JCHEM_BIOAVAILABILITY>
1

>  <JCHEM_DONOR_COUNT>
1

>  <JCHEM_EXACT_MASS>
303.07928

>  <JCHEM_FORMAL_CHARGE>
0

>  <JCHEM_FORMULA>
C14H19Cl2NO2

>  <JCHEM_GHOSE_FILTER>
1

>  <JCHEM_IUPAC>
4-{4-[bis(2-chloroethyl)amino]phenyl}butanoic acid

>  <ALOGPS_LOGP>
3.8099999

>  <JCHEM_LOGP>
3.937155

>  <ALOGPS_LOGS>
-3.5899999

>  <JCHEM_MASS>
304.21201

>  <JCHEM_MDDR_LIKE_RULE>
0

>  <JCHEM_NUMBER_OF_RINGS>
1

>  <JCHEM_PHYSIOLOGICAL_CHARGE>
-1

>  <JCHEM_PKA_STRONGEST_ACIDIC>
4.4555492

>  <JCHEM_PKA_STRONGEST_BASIC>
1.7171649

>  <JCHEM_POLAR_SURFACE_AREA>
40.540001

>  <JCHEM_REFRACTIVITY>
79.6828

>  <JCHEM_ROTATABLE_BOND_COUNT>
9

>  <JCHEM_RULE_OF_FIVE>
1

>  <ALOGPS_SOLUBILITY>
7.73e-02 g/l

>  <JCHEM_TRADITIONAL_IUPAC>
chlorambucil

>  <JCHEM_VEBER_RULE>
0

>  <DRUGBANK_ID>
DB00291

>  <DRUG_GROUPS>
approved

>  <GENERIC_NAME>
Chlorambucil

>  <SYNONYMS>
4-(p-bis(β-chloroethyl)aminophenyl)butyric acid; 4-[p-[bis(2-chloroethyl)amino]phenyl]butyric acid; Chloraminophen; N,N-di-2-chloroethyl-γ-p-aminophenylbutyric acid; Phenylbutyric Acid Nitrogen Mustard; γ-[p-di(2-chloroethyl)aminophenyl]butyric acid

>  <BRANDS>
Celkeran; Chloraminophène; Leukeran

$$$$
Morphine
 OpenBabel02121510022D

 24 28  0  0  1  0  0  0  0  0999 V2000
    1.9360    0.0460    0.0000 O   0  0  0  0  0  0  0  0  0  0  0  0
    1.7350   -2.0840    0.0000 O   0  0  0  0  0  0  0  0  0  0  0  0
    1.7350    2.0840    0.0000 O   0  0  0  0  0  0  0  0  0  0  0  0
    5.3440   -0.8250    0.0000 N   0  0  0  0  0  0  0  0  0  0  0  0
    3.2010   -0.4120    0.0000 C   0  0  1  0  0  0  0  0  0  0  0  0
    3.9150   -0.8250    0.0000 C   0  0  2  0  0  0  0  0  0  0  0  0
    4.6300   -0.4120    0.0000 C   0  0  1  0  0  0  0  0  0  0  0  0
    2.4860   -0.8250    0.0000 C   0  0  2  0  0  0  0  0  0  0  0  0
    3.6770    0.1920    0.0000 C   0  0  0  0  0  0  0  0  0  0  0  0
    3.2010    0.4120    0.0000 C   0  0  0  0  0  0  0  0  0  0  0  0
    4.6300    0.4120    0.0000 C   0  0  0  0  0  0  0  0  0  0  0  0
    4.8510    0.1920    0.0000 C   0  0  0  0  0  0  0  0  0  0  0  0
    3.9150    0.8250    0.0000 C   0  0  0  0  0  0  0  0  0  0  0  0
    2.4860   -1.6500    0.0000 C   0  0  2  0  0  0  0  0  0  0  0  0
    3.9150   -1.6500    0.0000 C   0  0  0  0  0  0  0  0  0  0  0  0
    2.4860    0.8250    0.0000 C   0  0  0  0  0  0  0  0  0  0  0  0
    3.2010   -2.0620    0.0000 C   0  0  0  0  0  0  0  0  0  0  0  0
    5.9350   -1.4600    0.0000 C   0  0  0  0  0  0  0  0  0  0  0  0
    3.9150    1.6500    0.0000 C   0  0  0  0  0  0  0  0  0  0  0  0
    2.4860    1.6500    0.0000 C   0  0  0  0  0  0  0  0  0  0  0  0
    3.2010    2.0620    0.0000 C   0  0  0  0  0  0  0  0  0  0  0  0
    4.3610   -1.3570    0.0000 H   0  0  0  0  0  0  0  0  0  0  0  0
    4.8680   -1.0640    0.0000 H   0  0  0  0  0  0  0  0  0  0  0  0
    1.8200   -1.0180    0.0000 H   0  0  0  0  0  0  0  0  0  0  0  0
  1  8  1  0  0  0  0
  1 16  1  0  0  0  0
  3 20  1  0  0  0  0
  4  7  1  0  0  0  0
  4 12  1  0  0  0  0
  4 18  1  0  0  0  0
  5  6  1  0  0  0  0
  5  8  1  0  0  0  0
  5  9  1  1  0  0  0
  5 10  1  0  0  0  0
  6  7  1  0  0  0  0
  6 15  1  0  0  0  0
  6 22  1  1  0  0  0
  7 11  1  0  0  0  0
  7 23  1  6  0  0  0
  8 14  1  0  0  0  0
  8 24  1  1  0  0  0
  9 12  1  0  0  0  0
 10 13  1  0  0  0  0
 10 16  2  0  0  0  0
 11 13  1  0  0  0  0
 13 19  2  0  0  0  0
 14  2  1  6  0  0  0
 14 17  1  0  0  0  0
 15 17  2  0  0  0  0
 16 20  1  0  0  0  0
 19 21  1  0  0  0  0
 20 21  2  0  0  0  0
M  END
>  <DATABASE_ID>
DB00295

>  <DATABASE_NAME>
drugbank

>  <SMILES>
O1[C@@H]2[C@]34[C@H]([C@H](N(CC3)C)Cc3c4c1c(O)cc3)C=C[C@@H]2O

>  <INCHI_IDENTIFIER>
InChI=1S/C17H19NO3/c1-18-7-6-17-10-3-5-13(20)16(17)21-15-12(19)4-2-9(14(15)17)8-11(10)18/h2-5,10-11,13,16,19-20H,6-8H2,1H3/t10-,11+,13-,16-,17-/m0/s1

>  <INCHI_KEY>
InChIKey=BQJCRHHNABKAKU-KBQPJGBKSA-N

>  <JCHEM_ACCEPTOR_COUNT>
4

>  <JCHEM_AVERAGE_POLARIZABILITY>
29.951035

>  <JCHEM_BIOAVAILABILITY>
1

>  <JCHEM_DONOR_COUNT>
2

>  <JCHEM_EXACT_MASS>
285.13651

>  <JCHEM_FORMAL_CHARGE>
0

>  <JCHEM_FORMULA>
C17H19NO3

>  <JCHEM_GHOSE_FILTER>
1

>  <JCHEM_IUPAC>
(1S,5R,13R,14S,17R)-4-methyl-12-oxa-4-azapentacyclo[9.6.1.0^{1,13}.0^{5,17}.0^{7,18}]octadeca-7(18),8,10,15-tetraene-10,14-diol

>  <ALOGPS_LOGP>
0.99000001

>  <JCHEM_LOGP>
0.8952108

>  <ALOGPS_LOGS>
-1.45

>  <JCHEM_MASS>
285.33771

>  <JCHEM_MDDR_LIKE_RULE>
0

>  <JCHEM_NUMBER_OF_RINGS>
5

>  <JCHEM_PHYSIOLOGICAL_CHARGE>
1

>  <JCHEM_PKA>
13.78311

>  <JCHEM_PKA_STRONGEST_ACIDIC>
10.25561

>  <JCHEM_PKA_STRONGEST_BASIC>
9.1215849

>  <JCHEM_POLAR_SURFACE_AREA>
52.93

>  <JCHEM_REFRACTIVITY>
80.122398

>  <JCHEM_ROTATABLE_BOND_COUNT>
0

>  <JCHEM_RULE_OF_FIVE>
1

>  <ALOGPS_SOLUBILITY>
1.02e+01 g/l

>  <JCHEM_TRADITIONAL_IUPAC>
morphine

>  <JCHEM_VEBER_RULE>
0

>  <DRUGBANK_ID>
DB00295

>  <DRUG_GROUPS>
approved; investigational

>  <GENERIC_NAME>
Morphine

>  <SYNONYMS>
(−)-morphine; Morphin; Morphinum

>  <BRANDS>
Avinza; Duramorph; Kadian; Kapanol; MS Contin; MSIR; Oramorph; Roxanol

>  <SALTS>
Morphine Sulfate

$$$$
Tenofovir
 OpenBabel02121510022D

 19 20  0  0  1  0  0  0  0  0999 V2000
    6.2430   -2.1860    0.0000 P   0  0  0  0  0  0  0  0  0  0  0  0
    5.1800   -1.2320    0.0000 O   0  0  0  0  0  0  0  0  0  0  0  0
    6.4990   -2.9710    0.0000 O   0  0  0  0  0  0  0  0  0  0  0  0
    7.0270   -1.9300    0.0000 O   0  0  0  0  0  0  0  0  0  0  0  0
    5.4590   -2.4430    0.0000 O   0  0  0  0  0  0  0  0  0  0  0  0
    3.8600    0.5060    0.0000 N   0  0  0  0  0  0  0  0  0  0  0  0
    3.8600    1.8340    0.0000 N   0  0  0  0  0  0  0  0  0  0  0  0
    2.3640    0.3450    0.0000 N   0  0  0  0  0  0  0  0  0  0  0  0
    1.6500    1.5830    0.0000 N   0  0  0  0  0  0  0  0  0  0  0  0
    2.3640    2.8200    0.0000 N   0  0  0  0  0  0  0  0  0  0  0  0
    4.9230   -0.4480    0.0000 C   0  0  1  0  0  0  0  0  0  0  0  0
    4.1160   -0.2780    0.0000 C   0  0  0  0  0  0  0  0  0  0  0  0
    3.0790    0.7580    0.0000 C   0  0  0  0  0  0  0  0  0  0  0  0
    5.4740    0.1660    0.0000 C   0  0  0  0  0  0  0  0  0  0  0  0
    3.0790    1.5830    0.0000 C   0  0  0  0  0  0  0  0  0  0  0  0
    4.3410    1.1700    0.0000 C   0  0  0  0  0  0  0  0  0  0  0  0
    5.9870   -1.4020    0.0000 C   0  0  0  0  0  0  0  0  0  0  0  0
    2.3640    1.9950    0.0000 C   0  0  0  0  0  0  0  0  0  0  0  0
    1.6500    0.7580    0.0000 C   0  0  0  0  0  0  0  0  0  0  0  0
  1  3  1  0  0  0  0
  1  4  1  0  0  0  0
  1  5  2  0  0  0  0
  1 17  1  0  0  0  0
  2 17  1  0  0  0  0
  6 12  1  0  0  0  0
  6 13  1  0  0  0  0
  6 16  1  0  0  0  0
  7 15  1  0  0  0  0
  7 16  2  0  0  0  0
  8 13  1  0  0  0  0
  8 19  2  0  0  0  0
  9 18  2  0  0  0  0
  9 19  1  0  0  0  0
 10 18  1  0  0  0  0
 11  2  1  1  0  0  0
 11 12  1  0  0  0  0
 11 14  1  0  0  0  0
 13 15  2  0  0  0  0
 15 18  1  0  0  0  0
M  END
>  <DATABASE_ID>
DB00300

>  <DATABASE_NAME>
drugbank

>  <SMILES>
P(O)(O)(=O)CO[C@@H](Cn1c2ncnc(N)c2nc1)C

>  <INCHI_IDENTIFIER>
InChI=1S/C9H14N5O4P/c1-6(18-5-19(15,16)17)2-14-4-13-7-8(10)11-3-12-9(7)14/h3-4,6H,2,5H2,1H3,(H2,10,11,12)(H2,15,16,17)/t6-/m1/s1

>  <INCHI_KEY>
InChIKey=SGOIRFVFHAKUTI-ZCFIWIBFSA-N

>  <JCHEM_ACCEPTOR_COUNT>
8

>  <JCHEM_AVERAGE_POLARIZABILITY>
25.540197

>  <JCHEM_BIOAVAILABILITY>
1

>  <JCHEM_DONOR_COUNT>
3

>  <JCHEM_EXACT_MASS>
287.07834

>  <JCHEM_FORMAL_CHARGE>
0

>  <JCHEM_FORMULA>
C9H14N5O4P

>  <JCHEM_GHOSE_FILTER>
0

>  <JCHEM_IUPAC>
({[(2R)-1-(6-amino-9H-purin-9-yl)propan-2-yl]oxy}methyl)phosphonic acid

>  <ALOGPS_LOGP>
-1.51

>  <JCHEM_LOGP>
-3.6562977

>  <ALOGPS_LOGS>
-2.1900001

>  <JCHEM_MASS>
287.21231

>  <JCHEM_MDDR_LIKE_RULE>
0

>  <JCHEM_NUMBER_OF_RINGS>
2

>  <JCHEM_PHYSIOLOGICAL_CHARGE>
-1

>  <JCHEM_PKA>
7.9059739

>  <JCHEM_PKA_STRONGEST_ACIDIC>
1.3533237

>  <JCHEM_PKA_STRONGEST_BASIC>
5.1238117

>  <JCHEM_POLAR_SURFACE_AREA>
136.38

>  <JCHEM_REFRACTIVITY>
67.535004

>  <JCHEM_ROTATABLE_BOND_COUNT>
5

>  <JCHEM_RULE_OF_FIVE>
1

>  <ALOGPS_SOLUBILITY>
1.87e+00 g/l

>  <JCHEM_TRADITIONAL_IUPAC>
{[(2R)-1-(6-aminopurin-9-yl)propan-2-yl]oxy}methylphosphonic acid

>  <JCHEM_VEBER_RULE>
0

>  <DRUGBANK_ID>
DB00300

>  <DRUG_GROUPS>
approved; investigational

>  <GENERIC_NAME>
Tenofovir

>  <BRANDS>
Viread

>  <SALTS>
Tenofovir Disoproxil Fumarate

$$$$
Tranexamic Acid
 OpenBabel02121510022D

 11 11  0  0  0  0  0  0  0  0999 V2000
   -0.7140    0.4120    0.0000 C   0  0  0  0  0  0  0  0  0  0  0  0
   -0.7140   -0.4120    0.0000 C   0  0  0  0  0  0  0  0  0  0  0  0
    0.7140   -0.4120    0.0000 C   0  0  0  0  0  0  0  0  0  0  0  0
    0.7140    0.4120    0.0000 C   0  0  0  0  0  0  0  0  0  0  0  0
    0.0000    0.8250    0.0000 C   0  0  3  0  0  0  0  0  0  0  0  0
    0.0000   -0.8250    0.0000 C   0  0  3  0  0  0  0  0  0  0  0  0
    0.7140    2.0620    0.0000 O   0  0  0  0  0  0  0  0  0  0  0  0
    0.0000    1.6500    0.0000 C   0  0  0  0  0  0  0  0  0  0  0  0
   -0.7140    2.0620    0.0000 O   0  0  0  0  0  0  0  0  0  0  0  0
    0.0000   -1.6500    0.0000 C   0  0  0  0  0  0  0  0  0  0  0  0
    0.7140   -2.0620    0.0000 N   0  0  0  0  0  0  0  0  0  0  0  0
  1  2  1  0  0  0  0
  1  5  1  0  0  0  0
  2  6  1  0  0  0  0
  3  4  1  0  0  0  0
  3  6  1  0  0  0  0
  4  5  1  0  0  0  0
  5  8  1  0  0  0  0
  6 10  1  0  0  0  0
  7  8  1  0  0  0  0
  8  9  2  0  0  0  0
 10 11  1  0  0  0  0
M  END
>  <DATABASE_ID>
DB00302

>  <DATABASE_NAME>
drugbank

>  <SMILES>
OC(=O)C1CCC(CC1)CN

>  <INCHI_IDENTIFIER>
InChI=1S/C8H15NO2/c9-5-6-1-3-7(4-2-6)8(10)11/h6-7H,1-5,9H2,(H,10,11)/t6-,7-

>  <INCHI_KEY>
InChIKey=GYDJEQRTZSCIOI-LJGSYFOKSA-N

>  <JCHEM_ACCEPTOR_COUNT>
3

>  <JCHEM_AVERAGE_POLARIZABILITY>
17.278824

>  <JCHEM_BIOAVAILABILITY>
1

>  <JCHEM_DONOR_COUNT>
2

>  <JCHEM_EXACT_MASS>
157.11028

>  <JCHEM_FORMAL_CHARGE>
0

>  <JCHEM_FORMULA>
C8H15NO2

>  <JCHEM_GHOSE_FILTER>
0

>  <JCHEM_IUPAC>
(1r,4r)-4-(aminomethyl)cyclohexane-1-carboxylic acid

>  <ALOGPS_LOGP>
-1.42

>  <JCHEM_LOGP>
-1.5523915

>  <ALOGPS_LOGS>
-0.94

>  <JCHEM_MASS>
157.21021

>  <JCHEM_MDDR_LIKE_RULE>
0

>  <JCHEM_NUMBER_OF_RINGS>
1

>  <JCHEM_PHYSIOLOGICAL_CHARGE>
0

>  <JCHEM_PKA_STRONGEST_ACIDIC>
4.5582533

>  <JCHEM_PKA_STRONGEST_BASIC>
10.220233

>  <JCHEM_POLAR_SURFACE_AREA>
63.32

>  <JCHEM_REFRACTIVITY>
41.903702

>  <JCHEM_ROTATABLE_BOND_COUNT>
2

>  <JCHEM_RULE_OF_FIVE>
1

>  <ALOGPS_SOLUBILITY>
1.82e+01 g/l

>  <JCHEM_TRADITIONAL_IUPAC>
cyklokapron

>  <JCHEM_VEBER_RULE>
0

>  <DRUGBANK_ID>
DB00302

>  <DRUG_GROUPS>
approved

>  <GENERIC_NAME>
Tranexamic Acid

>  <SYNONYMS>
Tranexamsaeure; Tranexmic acid; Tranhexamic acid; Trans AMCHA; trans-4-aminomethylcyclohexane-1-carboxylic acid; trans-Amcha; trans-Tranexamic acid

>  <BRANDS>
Cyclo-F; Cyklokapron; Espercil; Femstrual; Lysteda; Rikavarin; Transamin; Transcam; Traxyl

$$$$
Desogestrel
 OpenBabel02121510022D

 27 30  0  0  1  0  0  0  0  0999 V2000
    5.9100    1.5550    0.0000 O   0  0  0  0  0  0  0  0  0  0  0  0
    5.3830    0.5190    0.0000 C   0  0  1  0  0  0  0  0  0  0  0  0
    5.3830   -0.3060    0.0000 C   0  0  2  0  0  0  0  0  0  0  0  0
    4.6690   -0.7190    0.0000 C   0  0  1  0  0  0  0  0  0  0  0  0
    3.9540   -0.3060    0.0000 C   0  0  1  0  0  0  0  0  0  0  0  0
    6.1640    0.7700    0.0000 C   0  0  2  0  0  0  0  0  0  0  0  0
    6.1640   -0.5580    0.0000 C   0  0  0  0  0  0  0  0  0  0  0  0
    4.6690    0.9310    0.0000 C   0  0  0  0  0  0  0  0  0  0  0  0
    6.6460    0.1060    0.0000 C   0  0  0  0  0  0  0  0  0  0  0  0
    3.2040   -0.7250    0.0000 C   0  0  2  0  0  0  0  0  0  0  0  0
    4.6820   -1.5780    0.0000 C   0  0  0  0  0  0  0  0  0  0  0  0
    3.9540    0.5190    0.0000 C   0  0  0  0  0  0  0  0  0  0  0  0
    5.3830    1.3440    0.0000 C   0  0  0  0  0  0  0  0  0  0  0  0
    3.9410   -2.0140    0.0000 C   0  0  0  0  0  0  0  0  0  0  0  0
    3.1970   -1.5840    0.0000 C   0  0  0  0  0  0  0  0  0  0  0  0
    2.4390   -0.2590    0.0000 C   0  0  0  0  0  0  0  0  0  0  0  0
    4.6690    1.7560    0.0000 C   0  0  0  0  0  0  0  0  0  0  0  0
    6.8320    1.2540    0.0000 C   0  0  0  0  0  0  0  0  0  0  0  0
    1.6570   -0.6950    0.0000 C   0  0  0  0  0  0  0  0  0  0  0  0
    2.4250   -2.0380    0.0000 C   0  0  0  0  0  0  0  0  0  0  0  0
    3.2400    0.9310    0.0000 C   0  0  0  0  0  0  0  0  0  0  0  0
    1.6500   -1.5900    0.0000 C   0  0  0  0  0  0  0  0  0  0  0  0
    7.5010    1.7380    0.0000 C   0  0  0  0  0  0  0  0  0  0  0  0
    5.4530   -0.9630    0.0000 H   0  0  0  0  0  0  0  0  0  0  0  0
    5.2430   -1.0450    0.0000 H   0  0  0  0  0  0  0  0  0  0  0  0
    4.5260    0.0240    0.0000 H   0  0  0  0  0  0  0  0  0  0  0  0
    3.2160   -0.0650    0.0000 H   0  0  0  0  0  0  0  0  0  0  0  0
  2  3  1  0  0  0  0
  2  6  1  0  0  0  0
  2  8  1  0  0  0  0
  2 13  1  1  0  0  0
  3  4  1  0  0  0  0
  3  7  1  0  0  0  0
  3 24  1  6  0  0  0
  4  5  1  0  0  0  0
  4 11  1  0  0  0  0
  4 25  1  1  0  0  0
  5 10  1  0  0  0  0
  5 12  1  0  0  0  0
  5 26  1  6  0  0  0
  6  1  1  1  0  0  0
  6  9  1  0  0  0  0
  6 18  1  0  0  0  0
  7  9  1  0  0  0  0
  8 12  1  0  0  0  0
 10 15  1  0  0  0  0
 10 16  1  0  0  0  0
 10 27  1  1  0  0  0
 11 14  1  0  0  0  0
 12 21  2  0  0  0  0
 13 17  1  0  0  0  0
 14 15  1  0  0  0  0
 15 20  2  0  0  0  0
 16 19  1  0  0  0  0
 18 23  3  0  0  0  0
 19 22  1  0  0  0  0
 20 22  1  0  0  0  0
M  END
>  <DATABASE_ID>
DB00304

>  <DATABASE_NAME>
drugbank

>  <SMILES>
O[C@]1(CC[C@H]2[C@H]3[C@@H]([C@@H]4C(CC3)=CCCC4)C(C[C@]12CC)=C)C#C

>  <INCHI_IDENTIFIER>
InChI=1S/C22H30O/c1-4-21-14-15(3)20-17-9-7-6-8-16(17)10-11-18(20)19(21)12-13-22(21,23)5-2/h2,8,17-20,23H,3-4,6-7,9-14H2,1H3/t17-,18-,19-,20+,21-,22-/m0/s1

>  <INCHI_KEY>
InChIKey=RPLCPCMSCLEKRS-BPIQYHPVSA-N

>  <JCHEM_ACCEPTOR_COUNT>
1

>  <JCHEM_AVERAGE_POLARIZABILITY>
37.541348

>  <JCHEM_BIOAVAILABILITY>
1

>  <JCHEM_DONOR_COUNT>
1

>  <JCHEM_EXACT_MASS>
310.22968

>  <JCHEM_FORMAL_CHARGE>
0

>  <JCHEM_FORMULA>
C22H30O

>  <JCHEM_GHOSE_FILTER>
1

>  <JCHEM_IUPAC>
(1S,2R,10S,11S,14R,15S)-15-ethyl-14-ethynyl-17-methylidenetetracyclo[8.7.0.0^{2,7}.0^{11,15}]heptadec-6-en-14-ol

>  <ALOGPS_LOGP>
4.3000002

>  <JCHEM_LOGP>
4.4206424

>  <ALOGPS_LOGS>
-5.0100002

>  <JCHEM_MASS>
310.47299

>  <JCHEM_MDDR_LIKE_RULE>
0

>  <JCHEM_NUMBER_OF_RINGS>
4

>  <JCHEM_PHYSIOLOGICAL_CHARGE>
0

>  <JCHEM_PKA_STRONGEST_ACIDIC>
17.993504

>  <JCHEM_PKA_STRONGEST_BASIC>
-1.4894412

>  <JCHEM_POLAR_SURFACE_AREA>
20.23

>  <JCHEM_REFRACTIVITY>
95.733498

>  <JCHEM_ROTATABLE_BOND_COUNT>
1

>  <JCHEM_RULE_OF_FIVE>
1

>  <ALOGPS_SOLUBILITY>
3.01e-03 g/l

>  <JCHEM_TRADITIONAL_IUPAC>
desogestrel

>  <JCHEM_VEBER_RULE>
1

>  <DRUGBANK_ID>
DB00304

>  <DRUG_GROUPS>
approved

>  <GENERIC_NAME>
Desogestrel

>  <SYNONYMS>
Desogestrelum

>  <BRANDS>
Cerazette; Marvelon

$$$$
Bexarotene
 OpenBabel02121510022D

 26 28  0  0  0  0  0  0  0  0999 V2000
    5.9770   -2.7940    0.0000 O   0  0  0  0  0  0  0  0  0  0  0  0
    4.5480   -2.7890    0.0000 O   0  0  0  0  0  0  0  0  0  0  0  0
    2.3640    0.9410    0.0000 C   0  0  0  0  0  0  0  0  0  0  0  0
    2.3640    2.5910    0.0000 C   0  0  0  0  0  0  0  0  0  0  0  0
    1.6500    1.3540    0.0000 C   0  0  0  0  0  0  0  0  0  0  0  0
    1.6500    2.1790    0.0000 C   0  0  0  0  0  0  0  0  0  0  0  0
    3.0790    1.3540    0.0000 C   0  0  0  0  0  0  0  0  0  0  0  0
    3.0790    2.1790    0.0000 C   0  0  0  0  0  0  0  0  0  0  0  0
    1.9520    0.2270    0.0000 C   0  0  0  0  0  0  0  0  0  0  0  0
    2.7770    0.2270    0.0000 C   0  0  0  0  0  0  0  0  0  0  0  0
    1.9520    3.3060    0.0000 C   0  0  0  0  0  0  0  0  0  0  0  0
    2.7770    3.3060    0.0000 C   0  0  0  0  0  0  0  0  0  0  0  0
    3.8160    0.9120    0.0000 C   0  0  0  0  0  0  0  0  0  0  0  0
    3.8160    2.6200    0.0000 C   0  0  0  0  0  0  0  0  0  0  0  0
    4.5640    1.3360    0.0000 C   0  0  0  0  0  0  0  0  0  0  0  0
    4.5640    2.1960    0.0000 C   0  0  0  0  0  0  0  0  0  0  0  0
    5.2770    0.9210    0.0000 C   0  0  0  0  0  0  0  0  0  0  0  0
    5.2770    2.6110    0.0000 C   0  0  0  0  0  0  0  0  0  0  0  0
    5.2740    0.0960    0.0000 C   0  0  0  0  0  0  0  0  0  0  0  0
    5.9930    1.3310    0.0000 C   0  0  0  0  0  0  0  0  0  0  0  0
    4.5580   -0.3140    0.0000 C   0  0  0  0  0  0  0  0  0  0  0  0
    5.9870   -0.3190    0.0000 C   0  0  0  0  0  0  0  0  0  0  0  0
    4.5540   -1.1390    0.0000 C   0  0  0  0  0  0  0  0  0  0  0  0
    5.9830   -1.1440    0.0000 C   0  0  0  0  0  0  0  0  0  0  0  0
    5.2670   -1.5540    0.0000 C   0  0  0  0  0  0  0  0  0  0  0  0
    5.2640   -2.3790    0.0000 C   0  0  0  0  0  0  0  0  0  0  0  0
  1 26  1  0  0  0  0
  2 26  2  0  0  0  0
  3  5  1  0  0  0  0
  3  7  1  0  0  0  0
  3  9  1  0  0  0  0
  3 10  1  0  0  0  0
  4  6  1  0  0  0  0
  4  8  1  0  0  0  0
  4 11  1  0  0  0  0
  4 12  1  0  0  0  0
  5  6  1  0  0  0  0
  7  8  2  0  0  0  0
  7 13  1  0  0  0  0
  8 14  1  0  0  0  0
 13 15  2  0  0  0  0
 14 16  2  0  0  0  0
 15 16  1  0  0  0  0
 15 17  1  0  0  0  0
 16 18  1  0  0  0  0
 17 19  1  0  0  0  0
 17 20  2  0  0  0  0
 19 21  2  0  0  0  0
 19 22  1  0  0  0  0
 21 23  1  0  0  0  0
 22 24  2  0  0  0  0
 23 25  2  0  0  0  0
 24 25  1  0  0  0  0
 25 26  1  0  0  0  0
M  END
>  <DATABASE_ID>
DB00307

>  <DATABASE_NAME>
drugbank

>  <SMILES>
OC(=O)c1ccc(cc1)C(=C)c1cc2c(cc1C)C(CCC2(C)C)(C)C

>  <INCHI_IDENTIFIER>
InChI=1S/C24H28O2/c1-15-13-20-21(24(5,6)12-11-23(20,3)4)14-19(15)16(2)17-7-9-18(10-8-17)22(25)26/h7-10,13-14H,2,11-12H2,1,3-6H3,(H,25,26)

>  <INCHI_KEY>
InChIKey=NAVMQTYZDKMPEU-UHFFFAOYSA-N

>  <JCHEM_ACCEPTOR_COUNT>
2

>  <JCHEM_AVERAGE_POLARIZABILITY>
40.89246

>  <JCHEM_BIOAVAILABILITY>
1

>  <JCHEM_DONOR_COUNT>
1

>  <JCHEM_EXACT_MASS>
348.20892

>  <JCHEM_FORMAL_CHARGE>
0

>  <JCHEM_FORMULA>
C24H28O2

>  <JCHEM_GHOSE_FILTER>
0

>  <JCHEM_IUPAC>
4-[1-(3,5,5,8,8-pentamethyl-5,6,7,8-tetrahydronaphthalen-2-yl)ethenyl]benzoic acid

>  <ALOGPS_LOGP>
6.8600001

>  <JCHEM_LOGP>
6.9405375

>  <ALOGPS_LOGS>
-6.3699999

>  <JCHEM_MASS>
348.47791

>  <JCHEM_MDDR_LIKE_RULE>
0

>  <JCHEM_NUMBER_OF_RINGS>
3

>  <JCHEM_PHYSIOLOGICAL_CHARGE>
-1

>  <JCHEM_PKA_STRONGEST_ACIDIC>
4.0707927

>  <JCHEM_POLAR_SURFACE_AREA>
37.299999

>  <JCHEM_REFRACTIVITY>
117.124

>  <JCHEM_ROTATABLE_BOND_COUNT>
3

>  <JCHEM_RULE_OF_FIVE>
0

>  <ALOGPS_SOLUBILITY>
1.49e-04 g/l

>  <JCHEM_TRADITIONAL_IUPAC>
bexarotene

>  <JCHEM_VEBER_RULE>
1

>  <DRUGBANK_ID>
DB00307

>  <DRUG_GROUPS>
approved; investigational

>  <GENERIC_NAME>
Bexarotene

>  <SYNONYMS>
4-[1-(3,5,5,8,8-pentamethyltetralin-2-yl)ethenyl]benzoic acid; 4-[1-(5,6,7,8,-Tetrahydro-3,5,5,8,8-pentamethyl-2-naphtalenyl)ethenyl]benzoic acid; Bexaroten; Bexarotène; Bexarotene; Bexarotenum; p-[1-(5,6,7,8,-Tetrahydro-3,5,5,8,8-pentamethyl-2-naphthyl)vinyl]benzoic acid; Targretyn; Targrexin

>  <BRANDS>
Targretin

$$$$
Chlorthalidone
 OpenBabel02121510022D

 22 24  0  0  1  0  0  0  0  0999 V2000
    6.5330    2.0240    0.0000 Cl  0  0  0  0  0  0  0  0  0  0  0  0
    6.7020    0.3820    0.0000 S   0  0  0  0  0  0  0  0  0  0  0  0
    3.6060    0.8740    0.0000 O   0  0  0  0  0  0  0  0  0  0  0  0
    4.1160   -2.0240    0.0000 O   0  0  0  0  0  0  0  0  0  0  0  0
    7.0390    1.1350    0.0000 O   0  0  0  0  0  0  0  0  0  0  0  0
    6.3660   -0.3710    0.0000 O   0  0  0  0  0  0  0  0  0  0  0  0
    4.3410   -0.5750    0.0000 N   0  0  0  0  0  0  0  0  0  0  0  0
    7.4560    0.0450    0.0000 N   0  0  0  0  0  0  0  0  0  0  0  0
    3.8600    0.0880    0.0000 C   0  0  3  0  0  0  0  0  0  0  0  0
    3.0790   -0.1630    0.0000 C   0  0  0  0  0  0  0  0  0  0  0  0
    4.5280    0.5720    0.0000 C   0  0  0  0  0  0  0  0  0  0  0  0
    3.0790   -0.9880    0.0000 C   0  0  0  0  0  0  0  0  0  0  0  0
    3.8600   -1.2390    0.0000 C   0  0  0  0  0  0  0  0  0  0  0  0
    5.2810    0.2350    0.0000 C   0  0  0  0  0  0  0  0  0  0  0  0
    2.3640    0.2500    0.0000 C   0  0  0  0  0  0  0  0  0  0  0  0
    4.4430    1.3930    0.0000 C   0  0  0  0  0  0  0  0  0  0  0  0
    5.9490    0.7190    0.0000 C   0  0  0  0  0  0  0  0  0  0  0  0
    2.3640   -1.4000    0.0000 C   0  0  0  0  0  0  0  0  0  0  0  0
    1.6500   -0.1630    0.0000 C   0  0  0  0  0  0  0  0  0  0  0  0
    5.1110    1.8770    0.0000 C   0  0  0  0  0  0  0  0  0  0  0  0
    5.8640    1.5400    0.0000 C   0  0  0  0  0  0  0  0  0  0  0  0
    1.6500   -0.9880    0.0000 C   0  0  0  0  0  0  0  0  0  0  0  0
  1 21  1  0  0  0  0
  2  5  2  0  0  0  0
  2  6  2  0  0  0  0
  2  8  1  0  0  0  0
  2 17  1  0  0  0  0
  3  9  1  0  0  0  0
  4 13  2  0  0  0  0
  7  9  1  0  0  0  0
  7 13  1  0  0  0  0
  9 10  1  0  0  0  0
  9 11  1  0  0  0  0
 10 12  2  0  0  0  0
 10 15  1  0  0  0  0
 11 14  2  0  0  0  0
 11 16  1  0  0  0  0
 12 13  1  0  0  0  0
 12 18  1  0  0  0  0
 14 17  1  0  0  0  0
 15 19  2  0  0  0  0
 16 20  2  0  0  0  0
 17 21  2  0  0  0  0
 18 22  2  0  0  0  0
 19 22  1  0  0  0  0
 20 21  1  0  0  0  0
M  END
>  <DATABASE_ID>
DB00310

>  <DATABASE_NAME>
drugbank

>  <SMILES>
Clc1ccc(cc1S(=O)(=O)N)C1(O)NC(=O)c2c1cccc2

>  <INCHI_IDENTIFIER>
InChI=1S/C14H11ClN2O4S/c15-11-6-5-8(7-12(11)22(16,20)21)14(19)10-4-2-1-3-9(10)13(18)17-14/h1-7,19H,(H,17,18)(H2,16,20,21)

>  <INCHI_KEY>
InChIKey=JIVPVXMEBJLZRO-UHFFFAOYSA-N

>  <JCHEM_ACCEPTOR_COUNT>
4

>  <JCHEM_AVERAGE_POLARIZABILITY>
31.23074

>  <JCHEM_BIOAVAILABILITY>
1

>  <JCHEM_DONOR_COUNT>
3

>  <JCHEM_EXACT_MASS>
338.01282

>  <JCHEM_FORMAL_CHARGE>
0

>  <JCHEM_FORMULA>
C14H11ClN2O4S

>  <JCHEM_GHOSE_FILTER>
1

>  <JCHEM_IUPAC>
2-chloro-5-(1-hydroxy-3-oxo-2,3-dihydro-1H-isoindol-1-yl)benzene-1-sulfonamide

>  <ALOGPS_LOGP>
1.27

>  <JCHEM_LOGP>
1.6034211

>  <ALOGPS_LOGS>
-3.8099999

>  <JCHEM_MASS>
338.76599

>  <JCHEM_MDDR_LIKE_RULE>
0

>  <JCHEM_NUMBER_OF_RINGS>
3

>  <JCHEM_PHYSIOLOGICAL_CHARGE>
0

>  <JCHEM_PKA>
9.2239313

>  <JCHEM_PKA_STRONGEST_ACIDIC>
8.5795755

>  <JCHEM_PKA_STRONGEST_BASIC>
-2.6327949

>  <JCHEM_POLAR_SURFACE_AREA>
109.49

>  <JCHEM_REFRACTIVITY>
81.300499

>  <JCHEM_ROTATABLE_BOND_COUNT>
2

>  <JCHEM_RULE_OF_FIVE>
1

>  <ALOGPS_SOLUBILITY>
5.28e-02 g/l

>  <JCHEM_TRADITIONAL_IUPAC>
chlorthalidone

>  <JCHEM_VEBER_RULE>
0

>  <DRUGBANK_ID>
DB00310

>  <DRUG_GROUPS>
approved

>  <GENERIC_NAME>
Chlorthalidone

>  <SYNONYMS>
Chlorphthalidolone; Chlortalidone; Phthalamodine; Phthalamudine

>  <BRANDS>
Hygroton; Saluretin; Thalitone

$$$$
Valproic Acid
 OpenBabel02121510022D

 10  9  0  0  0  0  0  0  0  0999 V2000
   -1.4290    0.1650    0.0000 C   0  0  0  0  0  0  0  0  0  0  0  0
   -0.7140   -0.2480    0.0000 C   0  0  0  0  0  0  0  0  0  0  0  0
    0.0000    0.1650    0.0000 C   0  0  0  0  0  0  0  0  0  0  0  0
    0.7140   -0.2480    0.0000 C   0  0  0  0  0  0  0  0  0  0  0  0
    1.4290    0.1650    0.0000 C   0  0  0  0  0  0  0  0  0  0  0  0
    0.0000   -1.4850    0.0000 C   0  0  0  0  0  0  0  0  0  0  0  0
    0.0000   -2.3100    0.0000 C   0  0  0  0  0  0  0  0  0  0  0  0
    0.7140   -1.0720    0.0000 C   0  0  0  0  0  0  0  0  0  0  0  0
    2.1430   -0.2480    0.0000 O   0  0  0  0  0  0  0  0  0  0  0  0
    1.4290    0.9900    0.0000 O   0  0  0  0  0  0  0  0  0  0  0  0
  1  2  1  0  0  0  0
  2  3  1  0  0  0  0
  3  4  1  0  0  0  0
  4  5  1  0  0  0  0
  4  8  1  0  0  0  0
  5  9  1  0  0  0  0
  5 10  2  0  0  0  0
  6  7  1  0  0  0  0
  6  8  1  0  0  0  0
M  END
>  <DATABASE_ID>
DB00313

>  <DATABASE_NAME>
drugbank

>  <SMILES>
OC(=O)C(CCC)CCC

>  <INCHI_IDENTIFIER>
InChI=1S/C8H16O2/c1-3-5-7(6-4-2)8(9)10/h7H,3-6H2,1-2H3,(H,9,10)

>  <INCHI_KEY>
InChIKey=NIJJYAXOARWZEE-UHFFFAOYSA-N

>  <JCHEM_ACCEPTOR_COUNT>
2

>  <JCHEM_AVERAGE_POLARIZABILITY>
16.996878

>  <JCHEM_BIOAVAILABILITY>
1

>  <JCHEM_DONOR_COUNT>
1

>  <JCHEM_EXACT_MASS>
144.11504

>  <JCHEM_FORMAL_CHARGE>
0

>  <JCHEM_FORMULA>
C8H16O2

>  <JCHEM_GHOSE_FILTER>
0

>  <JCHEM_IUPAC>
2-propylpentanoic acid

>  <ALOGPS_LOGP>
2.54

>  <JCHEM_LOGP>
2.7984512

>  <ALOGPS_LOGS>
-1.79

>  <JCHEM_MASS>
144.2114

>  <JCHEM_MDDR_LIKE_RULE>
0

>  <JCHEM_NUMBER_OF_RINGS>
0

>  <JCHEM_PHYSIOLOGICAL_CHARGE>
-1

>  <JCHEM_PKA_STRONGEST_ACIDIC>
5.1443896

>  <JCHEM_POLAR_SURFACE_AREA>
37.299999

>  <JCHEM_REFRACTIVITY>
40.2491

>  <JCHEM_ROTATABLE_BOND_COUNT>
5

>  <JCHEM_RULE_OF_FIVE>
1

>  <ALOGPS_SOLUBILITY>
2.36e+00 g/l

>  <JCHEM_TRADITIONAL_IUPAC>
valproic acid

>  <JCHEM_VEBER_RULE>
1

>  <DRUGBANK_ID>
DB00313

>  <DRUG_GROUPS>
approved; investigational

>  <GENERIC_NAME>
Valproic Acid

>  <SYNONYMS>
2-n-propyl-n-valeric acid; 2-Propylpentanoic Acid; 2-Propylvaleric Acid; 4-heptanecarboxylic acid; di-n-propylacetic acid; Di-n-propylessigsäure; Dipropylacetic acid; DPA; n-DPA; Valproate; Valproinsäure; VPA

>  <BRANDS>
Convulex; Depacon; Depakene; Depakine; Depakote; Depakote ER; Deprakine; Encorate; Epilim; Epival; Stavzor; Valcote; Valparin; Valproic

>  <SALTS>
Valproate Semisodium

$$$$
Zolmitriptan
 OpenBabel02121510022D

 21 23  0  0  1  0  0  0  0  0999 V2000
    0.0000   -0.8250    0.0000 C   0  0  0  0  0  0  0  0  0  0  0  0
    0.7140   -0.4120    0.0000 C   0  0  0  0  0  0  0  0  0  0  0  0
    0.0000    0.8250    0.0000 C   0  0  0  0  0  0  0  0  0  0  0  0
   -0.7140   -0.4120    0.0000 C   0  0  0  0  0  0  0  0  0  0  0  0
   -0.7140    0.4120    0.0000 C   0  0  0  0  0  0  0  0  0  0  0  0
    0.7140    0.4120    0.0000 C   0  0  0  0  0  0  0  0  0  0  0  0
   -1.4290   -0.8250    0.0000 C   0  0  0  0  0  0  0  0  0  0  0  0
    1.9840    0.0000    0.0000 C   0  0  0  0  0  0  0  0  0  0  0  0
    1.4990   -0.6670    0.0000 C   0  0  0  0  0  0  0  0  0  0  0  0
    1.7540   -1.4520    0.0000 C   0  0  0  0  0  0  0  0  0  0  0  0
    2.8160   -2.4080    0.0000 N   0  0  0  0  0  0  0  0  0  0  0  0
    2.2640   -3.0210    0.0000 C   0  0  0  0  0  0  0  0  0  0  0  0
    3.6230   -2.5800    0.0000 C   0  0  0  0  0  0  0  0  0  0  0  0
    2.5610   -1.6240    0.0000 C   0  0  0  0  0  0  0  0  0  0  0  0
    1.4990    0.6670    0.0000 N   0  0  0  0  0  0  0  0  0  0  0  0
   -2.1430   -0.4120    0.0000 C   0  0  2  0  0  0  0  0  0  0  0  0
   -2.8110   -0.8970    0.0000 N   0  0  0  0  0  0  0  0  0  0  0  0
   -3.4780   -0.4130    0.0000 C   0  0  0  0  0  0  0  0  0  0  0  0
   -3.2230    0.3720    0.0000 O   0  0  0  0  0  0  0  0  0  0  0  0
   -4.2630   -0.6680    0.0000 O   0  0  0  0  0  0  0  0  0  0  0  0
   -2.3980    0.3720    0.0000 C   0  0  0  0  0  0  0  0  0  0  0  0
  1  2  2  0  0  0  0
  1  4  1  0  0  0  0
  2  6  1  0  0  0  0
  2  9  1  0  0  0  0
  3  5  1  0  0  0  0
  3  6  2  0  0  0  0
  4  5  2  0  0  0  0
  4  7  1  0  0  0  0
  6 15  1  0  0  0  0
  8  9  2  0  0  0  0
  8 15  1  0  0  0  0
  9 10  1  0  0  0  0
 10 14  1  0  0  0  0
 11 12  1  0  0  0  0
 11 13  1  0  0  0  0
 11 14  1  0  0  0  0
 16  7  1  6  0  0  0
 16 17  1  0  0  0  0
 16 21  1  0  0  0  0
 17 18  1  0  0  0  0
 18 19  1  0  0  0  0
 18 20  2  0  0  0  0
 19 21  1  0  0  0  0
M  END
>  <DATABASE_ID>
DB00315

>  <DATABASE_NAME>
drugbank

>  <SMILES>
O1C[C@@H](NC1=O)Cc1cc2c([nH]cc2CCN(C)C)cc1

>  <INCHI_IDENTIFIER>
InChI=1S/C16H21N3O2/c1-19(2)6-5-12-9-17-15-4-3-11(8-14(12)15)7-13-10-21-16(20)18-13/h3-4,8-9,13,17H,5-7,10H2,1-2H3,(H,18,20)/t13-/m0/s1

>  <INCHI_KEY>
InChIKey=ULSDMUVEXKOYBU-ZDUSSCGKSA-N

>  <JCHEM_ACCEPTOR_COUNT>
2

>  <JCHEM_AVERAGE_POLARIZABILITY>
31.650539

>  <JCHEM_BIOAVAILABILITY>
1

>  <JCHEM_DONOR_COUNT>
2

>  <JCHEM_EXACT_MASS>
287.16339

>  <JCHEM_FORMAL_CHARGE>
0

>  <JCHEM_FORMULA>
C16H21N3O2

>  <JCHEM_GHOSE_FILTER>
1

>  <JCHEM_IUPAC>
(4S)-4-({3-[2-(dimethylamino)ethyl]-1H-indol-5-yl}methyl)-1,3-oxazolidin-2-one

>  <ALOGPS_LOGP>
2.25

>  <JCHEM_LOGP>
2.0428753

>  <ALOGPS_LOGS>
-3.1800001

>  <JCHEM_MASS>
287.35681

>  <JCHEM_MDDR_LIKE_RULE>
0

>  <JCHEM_NUMBER_OF_RINGS>
3

>  <JCHEM_PHYSIOLOGICAL_CHARGE>
1

>  <JCHEM_PKA>
17.145765

>  <JCHEM_PKA_STRONGEST_ACIDIC>
13.002183

>  <JCHEM_PKA_STRONGEST_BASIC>
9.5459661

>  <JCHEM_POLAR_SURFACE_AREA>
57.360001

>  <JCHEM_REFRACTIVITY>
82.439201

>  <JCHEM_ROTATABLE_BOND_COUNT>
5

>  <JCHEM_RULE_OF_FIVE>
1

>  <ALOGPS_SOLUBILITY>
1.90e-01 g/l

>  <JCHEM_TRADITIONAL_IUPAC>
zolmitriptan

>  <JCHEM_VEBER_RULE>
0

>  <DRUGBANK_ID>
DB00315

>  <DRUG_GROUPS>
approved; investigational

>  <GENERIC_NAME>
Zolmitriptan

>  <SYNONYMS>
(S)-4-({3-[2-(dimethylamino)ethyl]-1H-indol-5-yl}methyl)-1,3-oxazolidin-2-one; Zolmitriptan; Zolmitriptanum

>  <BRANDS>
AscoTop; Nomi; Zolmiles; zolmiptriptan; Zolmit; Zomig; Zomig Rapimelt; Zomigon; Zomigoro; Zomitan

$$$$
Acetaminophen
 OpenBabel02121510022D

 11 11  0  0  0  0  0  0  0  0999 V2000
    2.3640   -2.1410    0.0000 O   0  0  0  0  0  0  0  0  0  0  0  0
    3.7930    1.1590    0.0000 O   0  0  0  0  0  0  0  0  0  0  0  0
    2.3640    1.1590    0.0000 N   0  0  0  0  0  0  0  0  0  0  0  0
    2.3640    0.3340    0.0000 C   0  0  0  0  0  0  0  0  0  0  0  0
    3.0790   -0.0780    0.0000 C   0  0  0  0  0  0  0  0  0  0  0  0
    1.6500   -0.0780    0.0000 C   0  0  0  0  0  0  0  0  0  0  0  0
    3.0790   -0.9030    0.0000 C   0  0  0  0  0  0  0  0  0  0  0  0
    1.6500   -0.9030    0.0000 C   0  0  0  0  0  0  0  0  0  0  0  0
    2.3640   -1.3160    0.0000 C   0  0  0  0  0  0  0  0  0  0  0  0
    3.0790    1.5720    0.0000 C   0  0  0  0  0  0  0  0  0  0  0  0
    3.0790    2.3970    0.0000 C   0  0  0  0  0  0  0  0  0  0  0  0
  1  9  1  0  0  0  0
  2 10  2  0  0  0  0
  3  4  1  0  0  0  0
  3 10  1  0  0  0  0
  4  5  2  0  0  0  0
  4  6  1  0  0  0  0
  5  7  1  0  0  0  0
  6  8  2  0  0  0  0
  7  9  2  0  0  0  0
  8  9  1  0  0  0  0
 10 11  1  0  0  0  0
M  END
>  <DATABASE_ID>
DB00316

>  <DATABASE_NAME>
drugbank

>  <SMILES>
Oc1ccc(NC(=O)C)cc1

>  <INCHI_IDENTIFIER>
InChI=1S/C8H9NO2/c1-6(10)9-7-2-4-8(11)5-3-7/h2-5,11H,1H3,(H,9,10)

>  <INCHI_KEY>
InChIKey=RZVAJINKPMORJF-UHFFFAOYSA-N

>  <JCHEM_ACCEPTOR_COUNT>
2

>  <JCHEM_AVERAGE_POLARIZABILITY>
15.521686

>  <JCHEM_BIOAVAILABILITY>
1

>  <JCHEM_DONOR_COUNT>
2

>  <JCHEM_EXACT_MASS>
151.06332

>  <JCHEM_FORMAL_CHARGE>
0

>  <JCHEM_FORMULA>
C8H9NO2

>  <JCHEM_GHOSE_FILTER>
0

>  <JCHEM_IUPAC>
N-(4-hydroxyphenyl)acetamide

>  <ALOGPS_LOGP>
0.50999999

>  <JCHEM_LOGP>
0.90739083

>  <ALOGPS_LOGS>
-1.5599999

>  <JCHEM_MASS>
151.1626

>  <JCHEM_MDDR_LIKE_RULE>
0

>  <JCHEM_NUMBER_OF_RINGS>
1

>  <JCHEM_PHYSIOLOGICAL_CHARGE>
0

>  <JCHEM_PKA>
16.653658

>  <JCHEM_PKA_STRONGEST_ACIDIC>
9.464366

>  <JCHEM_PKA_STRONGEST_BASIC>
-4.3621807

>  <JCHEM_POLAR_SURFACE_AREA>
49.330002

>  <JCHEM_REFRACTIVITY>
42.901901

>  <JCHEM_ROTATABLE_BOND_COUNT>
1

>  <JCHEM_RULE_OF_FIVE>
1

>  <ALOGPS_SOLUBILITY>
4.15e+00 g/l

>  <JCHEM_TRADITIONAL_IUPAC>
acetaminophen

>  <JCHEM_VEBER_RULE>
0

>  <DRUGBANK_ID>
DB00316

>  <DRUG_GROUPS>
approved

>  <GENERIC_NAME>
Acetaminophen

>  <SYNONYMS>
4-(Acetylamino)phenol; 4-acetamidophenol; 4'-hydroxyacetanilide; Acetaminofen; APAP; N-acetyl-p-aminophenol; p-acetamidophenol; p-acetaminophenol; p-Acetylaminophenol; p-hydroxyacetanilide; p-hydroxyphenolacetamide; Paracetamol

>  <BRANDS>
Abenol; Acamol; Acephen; Aceta Elixir; Aceta Tablets; Acetalgin; Actamin; Actimol; Algotropyl; Alvedon; Aminofen; Anacin-3; Anhiba; Apacet; Banesin; Calpol; Conacetol; Dafalgan; Dapa X-S; Disprol; Dolprone; Dymadon; Dypap; Enelfa; Febridol; Febrilix; Feverall; Finimal; Gelocatil; Genapap; Genebs; Injectapap; Liquiprin; Napafen; Ofirmev; Oraphen-PD; Paldesic; Panadol; Panofen; Paraspen; Parmol; Redutemp; Rounox; Salzone; Snaplets-FR; St. Joseph Fever Reducer; Suppap; Tapanol; Tempra; Tylenol; Valorin

$$$$
Gefitinib
 OpenBabel02121510022D

 31 34  0  0  0  0  0  0  0  0999 V2000
   10.2090   -2.9100    0.0000 Cl  0  0  0  0  0  0  0  0  0  0  0  0
   11.6470   -2.1020    0.0000 F   0  0  0  0  0  0  0  0  0  0  0  0
    1.6500   -0.3900    0.0000 O   0  0  0  0  0  0  0  0  0  0  0  0
    5.9370    0.4350    0.0000 O   0  0  0  0  0  0  0  0  0  0  0  0
    5.9370    2.0850    0.0000 O   0  0  0  0  0  0  0  0  0  0  0  0
    3.0790    0.4350    0.0000 N   0  0  0  0  0  0  0  0  0  0  0  0
    8.8080   -0.4190    0.0000 N   0  0  0  0  0  0  0  0  0  0  0  0
    8.8180    2.1140    0.0000 N   0  0  0  0  0  0  0  0  0  0  0  0
    9.5650    0.8300    0.0000 N   0  0  0  0  0  0  0  0  0  0  0  0
    3.7940    0.8480    0.0000 C   0  0  0  0  0  0  0  0  0  0  0  0
    2.3640    0.8480    0.0000 C   0  0  0  0  0  0  0  0  0  0  0  0
    3.0790   -0.3900    0.0000 C   0  0  0  0  0  0  0  0  0  0  0  0
    4.5080    0.4350    0.0000 C   0  0  0  0  0  0  0  0  0  0  0  0
    1.6500    0.4350    0.0000 C   0  0  0  0  0  0  0  0  0  0  0  0
    2.3640   -0.8030    0.0000 C   0  0  0  0  0  0  0  0  0  0  0  0
    5.2220    0.8480    0.0000 C   0  0  0  0  0  0  0  0  0  0  0  0
    6.6520    0.8480    0.0000 C   0  0  0  0  0  0  0  0  0  0  0  0
    8.0800    0.8480    0.0000 C   0  0  0  0  0  0  0  0  0  0  0  0
    7.3660    0.4350    0.0000 C   0  0  0  0  0  0  0  0  0  0  0  0
    6.6520    1.6720    0.0000 C   0  0  0  0  0  0  0  0  0  0  0  0
    8.0800    1.6720    0.0000 C   0  0  0  0  0  0  0  0  0  0  0  0
    7.3660    2.0850    0.0000 C   0  0  0  0  0  0  0  0  0  0  0  0
    8.8180    0.4060    0.0000 C   0  0  0  0  0  0  0  0  0  0  0  0
    9.5180   -0.8390    0.0000 C   0  0  0  0  0  0  0  0  0  0  0  0
    9.5650    1.6900    0.0000 C   0  0  0  0  0  0  0  0  0  0  0  0
    5.9370    2.9100    0.0000 C   0  0  0  0  0  0  0  0  0  0  0  0
    9.5080   -1.6640    0.0000 C   0  0  0  0  0  0  0  0  0  0  0  0
   10.2370   -0.4350    0.0000 C   0  0  0  0  0  0  0  0  0  0  0  0
   10.2180   -2.0850    0.0000 C   0  0  0  0  0  0  0  0  0  0  0  0
   10.9470   -0.8560    0.0000 C   0  0  0  0  0  0  0  0  0  0  0  0
   10.9370   -1.6810    0.0000 C   0  0  0  0  0  0  0  0  0  0  0  0
  1 29  1  0  0  0  0
  2 31  1  0  0  0  0
  3 14  1  0  0  0  0
  3 15  1  0  0  0  0
  4 16  1  0  0  0  0
  4 17  1  0  0  0  0
  5 20  1  0  0  0  0
  5 26  1  0  0  0  0
  6 10  1  0  0  0  0
  6 11  1  0  0  0  0
  6 12  1  0  0  0  0
  7 23  1  0  0  0  0
  7 24  1  0  0  0  0
  8 21  2  0  0  0  0
  8 25  1  0  0  0  0
  9 23  1  0  0  0  0
  9 25  2  0  0  0  0
 10 13  1  0  0  0  0
 11 14  1  0  0  0  0
 12 15  1  0  0  0  0
 13 16  1  0  0  0  0
 17 19  2  0  0  0  0
 17 20  1  0  0  0  0
 18 19  1  0  0  0  0
 18 21  1  0  0  0  0
 18 23  2  0  0  0  0
 20 22  2  0  0  0  0
 21 22  1  0  0  0  0
 24 27  2  0  0  0  0
 24 28  1  0  0  0  0
 27 29  1  0  0  0  0
 28 30  2  0  0  0  0
 29 31  2  0  0  0  0
 30 31  1  0  0  0  0
M  END
>  <DATABASE_ID>
DB00317

>  <DATABASE_NAME>
drugbank

>  <SMILES>
Clc1cc(Nc2ncnc3c2cc(OCCCN2CCOCC2)c(OC)c3)ccc1F

>  <INCHI_IDENTIFIER>
InChI=1S/C22H24ClFN4O3/c1-29-20-13-19-16(12-21(20)31-8-2-5-28-6-9-30-10-7-28)22(26-14-25-19)27-15-3-4-18(24)17(23)11-15/h3-4,11-14H,2,5-10H2,1H3,(H,25,26,27)

>  <INCHI_KEY>
InChIKey=XGALLCVXEZPNRQ-UHFFFAOYSA-N

>  <JCHEM_ACCEPTOR_COUNT>
7

>  <JCHEM_AVERAGE_POLARIZABILITY>
46.113651

>  <JCHEM_BIOAVAILABILITY>
1

>  <JCHEM_DONOR_COUNT>
1

>  <JCHEM_EXACT_MASS>
446.1521

>  <JCHEM_FORMAL_CHARGE>
0

>  <JCHEM_FORMULA>
C22H24ClFN4O3

>  <JCHEM_GHOSE_FILTER>
1

>  <JCHEM_IUPAC>
N-(3-chloro-4-fluorophenyl)-7-methoxy-6-[3-(morpholin-4-yl)propoxy]quinazolin-4-amine

>  <ALOGPS_LOGP>
4.02

>  <JCHEM_LOGP>
3.7509537

>  <ALOGPS_LOGS>
-4.2199998

>  <JCHEM_MASS>
446.90201

>  <JCHEM_MDDR_LIKE_RULE>
1

>  <JCHEM_NUMBER_OF_RINGS>
4

>  <JCHEM_PHYSIOLOGICAL_CHARGE>
0

>  <JCHEM_PKA_STRONGEST_ACIDIC>
16.105064

>  <JCHEM_PKA_STRONGEST_BASIC>
6.8466029

>  <JCHEM_POLAR_SURFACE_AREA>
68.739998

>  <JCHEM_REFRACTIVITY>
117.5068

>  <JCHEM_ROTATABLE_BOND_COUNT>
8

>  <JCHEM_RULE_OF_FIVE>
1

>  <ALOGPS_SOLUBILITY>
2.70e-02 g/l

>  <JCHEM_TRADITIONAL_IUPAC>
gefitinib

>  <JCHEM_VEBER_RULE>
0

>  <DRUGBANK_ID>
DB00317

>  <DRUG_GROUPS>
approved; investigational

>  <GENERIC_NAME>
Gefitinib

>  <BRANDS>
Iressa

$$$$
Codeine
 OpenBabel02121510022D

 25 29  0  0  1  0  0  0  0  0999 V2000
    1.9360   -0.1190    0.0000 O   0  0  0  0  0  0  0  0  0  0  0  0
    1.7350   -2.2490    0.0000 O   0  0  0  0  0  0  0  0  0  0  0  0
    1.7350    1.9190    0.0000 O   0  0  0  0  0  0  0  0  0  0  0  0
    5.3440   -0.9900    0.0000 N   0  0  0  0  0  0  0  0  0  0  0  0
    3.2010   -0.5770    0.0000 C   0  0  1  0  0  0  0  0  0  0  0  0
    3.9150   -0.9900    0.0000 C   0  0  2  0  0  0  0  0  0  0  0  0
    4.6300   -0.5770    0.0000 C   0  0  1  0  0  0  0  0  0  0  0  0
    2.4860   -0.9900    0.0000 C   0  0  2  0  0  0  0  0  0  0  0  0
    3.6770    0.0280    0.0000 C   0  0  0  0  0  0  0  0  0  0  0  0
    3.2010    0.2480    0.0000 C   0  0  0  0  0  0  0  0  0  0  0  0
    4.6300    0.2480    0.0000 C   0  0  0  0  0  0  0  0  0  0  0  0
    4.8510    0.0280    0.0000 C   0  0  0  0  0  0  0  0  0  0  0  0
    3.9150    0.6600    0.0000 C   0  0  0  0  0  0  0  0  0  0  0  0
    2.4860   -1.8150    0.0000 C   0  0  2  0  0  0  0  0  0  0  0  0
    3.9150   -1.8150    0.0000 C   0  0  0  0  0  0  0  0  0  0  0  0
    2.4860    0.6600    0.0000 C   0  0  0  0  0  0  0  0  0  0  0  0
    3.2010   -2.2270    0.0000 C   0  0  0  0  0  0  0  0  0  0  0  0
    5.9350   -1.6250    0.0000 C   0  0  0  0  0  0  0  0  0  0  0  0
    3.9150    1.4850    0.0000 C   0  0  0  0  0  0  0  0  0  0  0  0
    2.4860    1.4850    0.0000 C   0  0  0  0  0  0  0  0  0  0  0  0
    3.2010    1.8980    0.0000 C   0  0  0  0  0  0  0  0  0  0  0  0
    1.7350    2.7860    0.0000 C   0  0  0  0  0  0  0  0  0  0  0  0
    4.3610   -1.5210    0.0000 H   0  0  0  0  0  0  0  0  0  0  0  0
    4.8680   -1.2290    0.0000 H   0  0  0  0  0  0  0  0  0  0  0  0
    1.8200   -1.1830    0.0000 H   0  0  0  0  0  0  0  0  0  0  0  0
  1  8  1  0  0  0  0
  1 16  1  0  0  0  0
  3 20  1  0  0  0  0
  3 22  1  0  0  0  0
  4  7  1  0  0  0  0
  4 12  1  0  0  0  0
  4 18  1  0  0  0  0
  5  6  1  0  0  0  0
  5  8  1  0  0  0  0
  5  9  1  1  0  0  0
  5 10  1  0  0  0  0
  6  7  1  0  0  0  0
  6 15  1  0  0  0  0
  6 23  1  1  0  0  0
  7 11  1  0  0  0  0
  7 24  1  6  0  0  0
  8 14  1  0  0  0  0
  8 25  1  1  0  0  0
  9 12  1  0  0  0  0
 10 13  1  0  0  0  0
 10 16  2  0  0  0  0
 11 13  1  0  0  0  0
 13 19  2  0  0  0  0
 14  2  1  6  0  0  0
 14 17  1  0  0  0  0
 15 17  2  0  0  0  0
 16 20  1  0  0  0  0
 19 21  1  0  0  0  0
 20 21  2  0  0  0  0
M  END
>  <DATABASE_ID>
DB00318

>  <DATABASE_NAME>
drugbank

>  <SMILES>
O1[C@@H]2[C@]34[C@H]([C@H](N(CC3)C)Cc3c4c1c(OC)cc3)C=C[C@@H]2O

>  <INCHI_IDENTIFIER>
InChI=1S/C18H21NO3/c1-19-8-7-18-11-4-5-13(20)17(18)22-16-14(21-2)6-3-10(15(16)18)9-12(11)19/h3-6,11-13,17,20H,7-9H2,1-2H3/t11-,12+,13-,17-,18-/m0/s1

>  <INCHI_KEY>
InChIKey=OROGSEYTTFOCAN-DNJOTXNNSA-N

>  <JCHEM_ACCEPTOR_COUNT>
4

>  <JCHEM_AVERAGE_POLARIZABILITY>
31.952389

>  <JCHEM_BIOAVAILABILITY>
1

>  <JCHEM_DONOR_COUNT>
1

>  <JCHEM_EXACT_MASS>
299.15213

>  <JCHEM_FORMAL_CHARGE>
0

>  <JCHEM_FORMULA>
C18H21NO3

>  <JCHEM_GHOSE_FILTER>
1

>  <JCHEM_IUPAC>
(1S,5R,13R,14S,17R)-10-methoxy-4-methyl-12-oxa-4-azapentacyclo[9.6.1.0^{1,13}.0^{5,17}.0^{7,18}]octadeca-7(18),8,10,15-tetraen-14-ol

>  <ALOGPS_LOGP>
1.2

>  <JCHEM_LOGP>
1.3429513

>  <ALOGPS_LOGS>
-2.72

>  <JCHEM_MASS>
299.3642

>  <JCHEM_MDDR_LIKE_RULE>
0

>  <JCHEM_NUMBER_OF_RINGS>
5

>  <JCHEM_PHYSIOLOGICAL_CHARGE>
1

>  <JCHEM_PKA_STRONGEST_ACIDIC>
13.78274

>  <JCHEM_PKA_STRONGEST_BASIC>
9.1927853

>  <JCHEM_POLAR_SURFACE_AREA>
41.93

>  <JCHEM_REFRACTIVITY>
84.604698

>  <JCHEM_ROTATABLE_BOND_COUNT>
1

>  <JCHEM_RULE_OF_FIVE>
1

>  <ALOGPS_SOLUBILITY>
5.77e-01 g/l

>  <JCHEM_TRADITIONAL_IUPAC>
codeine

>  <JCHEM_VEBER_RULE>
0

>  <DRUGBANK_ID>
DB00318

>  <DRUG_GROUPS>
approved; illicit

>  <GENERIC_NAME>
Codeine

>  <SYNONYMS>
(5α,6α)-7,8-didehydro-4,5-epoxy-3-methoxy-17-methylmorphinan-6-ol; 3-Methylmorphin; 3-methylmorphine; Codein; Codeína; Codéine; Codeine anhydrous; Codeinum; L-Codeine; Methylmorphine; morphine 3-methyl ether; Morphine monomethyl ether; morphine monomethyl ether; morphine-3-methyl ether

>  <BRANDS>
Actacode; Bisoltus; Bromophar; Bronchicum; Bronchodine; Codant; Codedrill; Codein; Codeisan; Coderpina; Codicalm; Codinex; Cougel; Coutan; Dinco; Farmacod; Galcodine; Pectoral; Tussoret

>  <SALTS>
Codeine Hydrochloride; Codeine Phosphate ; Codeine Sulfate

$$$$
Amitriptyline
 OpenBabel02121510022D

 21 23  0  0  0  0  0  0  0  0999 V2000
    2.6000   -1.7290    0.0000 N   0  0  0  0  0  0  0  0  0  0  0  0
    3.6160    2.5540    0.0000 C   0  0  0  0  0  0  0  0  0  0  0  0
    4.4410    2.5540    0.0000 C   0  0  0  0  0  0  0  0  0  0  0  0
    4.0280    0.7460    0.0000 C   0  0  0  0  0  0  0  0  0  0  0  0
    3.1020    1.9090    0.0000 C   0  0  0  0  0  0  0  0  0  0  0  0
    4.9550    1.9090    0.0000 C   0  0  0  0  0  0  0  0  0  0  0  0
    3.2850    1.1040    0.0000 C   0  0  0  0  0  0  0  0  0  0  0  0
    4.7720    1.1040    0.0000 C   0  0  0  0  0  0  0  0  0  0  0  0
    4.0280   -0.0790    0.0000 C   0  0  0  0  0  0  0  0  0  0  0  0
    3.3140   -0.4910    0.0000 C   0  0  0  0  0  0  0  0  0  0  0  0
    2.2840    2.1740    0.0000 C   0  0  0  0  0  0  0  0  0  0  0  0
    5.7720    2.1740    0.0000 C   0  0  0  0  0  0  0  0  0  0  0  0
    2.6640    0.5100    0.0000 C   0  0  0  0  0  0  0  0  0  0  0  0
    5.3930    0.5100    0.0000 C   0  0  0  0  0  0  0  0  0  0  0  0
    3.3140   -1.3160    0.0000 C   0  0  0  0  0  0  0  0  0  0  0  0
    1.6500    1.5950    0.0000 C   0  0  0  0  0  0  0  0  0  0  0  0
    6.4070    1.5950    0.0000 C   0  0  0  0  0  0  0  0  0  0  0  0
    1.8410    0.7570    0.0000 C   0  0  0  0  0  0  0  0  0  0  0  0
    6.2160    0.7570    0.0000 C   0  0  0  0  0  0  0  0  0  0  0  0
    2.6000   -2.5540    0.0000 C   0  0  0  0  0  0  0  0  0  0  0  0
    1.8850   -1.3160    0.0000 C   0  0  0  0  0  0  0  0  0  0  0  0
  1 15  1  0  0  0  0
  1 20  1  0  0  0  0
  1 21  1  0  0  0  0
  2  3  1  0  0  0  0
  2  5  1  0  0  0  0
  3  6  1  0  0  0  0
  4  7  1  0  0  0  0
  4  8  1  0  0  0  0
  4  9  2  0  0  0  0
  5  7  1  0  0  0  0
  5 11  2  0  0  0  0
  6  8  1  0  0  0  0
  6 12  2  0  0  0  0
  7 13  2  0  0  0  0
  8 14  2  0  0  0  0
  9 10  1  0  0  0  0
 10 15  1  0  0  0  0
 11 16  1  0  0  0  0
 12 17  1  0  0  0  0
 13 18  1  0  0  0  0
 14 19  1  0  0  0  0
 16 18  2  0  0  0  0
 17 19  2  0  0  0  0
M  END
>  <DATABASE_ID>
DB00321

>  <DATABASE_NAME>
drugbank

>  <SMILES>
N(CCC=C1c2c(CCc3c1cccc3)cccc2)(C)C

>  <INCHI_IDENTIFIER>
InChI=1S/C20H23N/c1-21(2)15-7-12-20-18-10-5-3-8-16(18)13-14-17-9-4-6-11-19(17)20/h3-6,8-12H,7,13-15H2,1-2H3

>  <INCHI_KEY>
InChIKey=KRMDCWKBEZIMAB-UHFFFAOYSA-N

>  <JCHEM_ACCEPTOR_COUNT>
1

>  <JCHEM_AVERAGE_POLARIZABILITY>
33.739418

>  <JCHEM_BIOAVAILABILITY>
1

>  <JCHEM_DONOR_COUNT>
0

>  <JCHEM_EXACT_MASS>
277.18304

>  <JCHEM_FORMAL_CHARGE>
0

>  <JCHEM_FORMULA>
C20H23N

>  <JCHEM_GHOSE_FILTER>
1

>  <JCHEM_IUPAC>
dimethyl({3-[(2Z)-tricyclo[9.4.0.0^{3,8}]pentadeca-1(11),3(8),4,6,12,14-hexaen-2-ylidene]propyl})amine

>  <ALOGPS_LOGP>
5.0999999

>  <JCHEM_LOGP>
4.809535

>  <ALOGPS_LOGS>
-4.79

>  <JCHEM_MASS>
277.40329

>  <JCHEM_MDDR_LIKE_RULE>
0

>  <JCHEM_NUMBER_OF_RINGS>
3

>  <JCHEM_PHYSIOLOGICAL_CHARGE>
1

>  <JCHEM_PKA_STRONGEST_BASIC>
9.7607384

>  <JCHEM_POLAR_SURFACE_AREA>
3.24

>  <JCHEM_REFRACTIVITY>
101.5072

>  <JCHEM_ROTATABLE_BOND_COUNT>
3

>  <JCHEM_RULE_OF_FIVE>
1

>  <ALOGPS_SOLUBILITY>
4.50e-03 g/l

>  <JCHEM_TRADITIONAL_IUPAC>
amitriptyline

>  <JCHEM_VEBER_RULE>
1

>  <DRUGBANK_ID>
DB00321

>  <DRUG_GROUPS>
approved

>  <GENERIC_NAME>
Amitriptyline

>  <SYNONYMS>
Amitriptilina; Amitriptylin; Amitriptyline; Amitriptylinum

>  <BRANDS>
Adepril; Amitryp; Conmitrip; Elavil; Endep; Fiorda; Kamitrin; Laroxyl; Latilin; Maxitrip; Redomex; Saroten; Sarotex; Sarotex Retard; Syneudon; Tryptanol; Tryptanol; Tryptizol; Uxen Retard

>  <SALTS>
Amitriptyline Hydrochloride

$$$$
Tolcapone
 OpenBabel02121510022D

 20 21  0  0  0  0  0  0  0  0999 V2000
    5.6660    0.6190    0.0000 O   0  0  0  0  0  0  0  0  0  0  0  0
    2.0930    0.2060    0.0000 O   0  0  0  0  0  0  0  0  0  0  0  0
    2.0930    1.8560    0.0000 O   0  0  0  0  0  0  0  0  0  0  0  0
    4.2360    3.0940    0.0000 O   0  5  0  0  0  0  0  0  0  0  0  0
    2.8080    3.0940    0.0000 O   0  0  0  0  0  0  0  0  0  0  0  0
    3.5220    2.6810    0.0000 N   0  3  0  0  0  0  0  0  0  0  0  0
    4.2360    0.6190    0.0000 C   0  0  0  0  0  0  0  0  0  0  0  0
    4.9510   -0.6190    0.0000 C   0  0  0  0  0  0  0  0  0  0  0  0
    4.9510    0.2060    0.0000 C   0  0  0  0  0  0  0  0  0  0  0  0
    4.2360    1.4440    0.0000 C   0  0  0  0  0  0  0  0  0  0  0  0
    3.5220    0.2060    0.0000 C   0  0  0  0  0  0  0  0  0  0  0  0
    3.5220    1.8560    0.0000 C   0  0  0  0  0  0  0  0  0  0  0  0
    2.8080    0.6190    0.0000 C   0  0  0  0  0  0  0  0  0  0  0  0
    4.9510   -2.2690    0.0000 C   0  0  0  0  0  0  0  0  0  0  0  0
    4.2360   -1.0310    0.0000 C   0  0  0  0  0  0  0  0  0  0  0  0
    5.6660   -1.0310    0.0000 C   0  0  0  0  0  0  0  0  0  0  0  0
    2.8080    1.4440    0.0000 C   0  0  0  0  0  0  0  0  0  0  0  0
    4.2360   -1.8560    0.0000 C   0  0  0  0  0  0  0  0  0  0  0  0
    5.6660   -1.8560    0.0000 C   0  0  0  0  0  0  0  0  0  0  0  0
    4.9510   -3.0940    0.0000 C   0  0  0  0  0  0  0  0  0  0  0  0
  1  9  2  0  0  0  0
  2 13  1  0  0  0  0
  3 17  1  0  0  0  0
  4  6  1  0  0  0  0
  5  6  2  0  0  0  0
  6 12  1  0  0  0  0
  7  9  1  0  0  0  0
  7 10  2  0  0  0  0
  7 11  1  0  0  0  0
  8  9  1  0  0  0  0
  8 15  2  0  0  0  0
  8 16  1  0  0  0  0
 10 12  1  0  0  0  0
 11 13  2  0  0  0  0
 12 17  2  0  0  0  0
 13 17  1  0  0  0  0
 14 18  2  0  0  0  0
 14 19  1  0  0  0  0
 14 20  1  0  0  0  0
 15 18  1  0  0  0  0
 16 19  2  0  0  0  0
M  CHG  2   4  -1   6   1
M  END
>  <DATABASE_ID>
DB00323

>  <DATABASE_NAME>
drugbank

>  <SMILES>
Oc1c([N+](=O)[O-])cc(cc1O)C(=O)c1ccc(cc1)C

>  <INCHI_IDENTIFIER>
InChI=1S/C14H11NO5/c1-8-2-4-9(5-3-8)13(17)10-6-11(15(19)20)14(18)12(16)7-10/h2-7,16,18H,1H3

>  <INCHI_KEY>
InChIKey=MIQPIUSUKVNLNT-UHFFFAOYSA-N

>  <JCHEM_ACCEPTOR_COUNT>
5

>  <JCHEM_AVERAGE_POLARIZABILITY>
26.436268

>  <JCHEM_BIOAVAILABILITY>
1

>  <JCHEM_DONOR_COUNT>
2

>  <JCHEM_EXACT_MASS>
273.06372

>  <JCHEM_FORMAL_CHARGE>
0

>  <JCHEM_FORMULA>
C14H11NO5

>  <JCHEM_GHOSE_FILTER>
1

>  <JCHEM_IUPAC>
5-[(4-methylphenyl)carbonyl]-3-nitrobenzene-1,2-diol

>  <ALOGPS_LOGP>
2.6300001

>  <JCHEM_LOGP>
3.2788737

>  <ALOGPS_LOGS>
-3.6800001

>  <JCHEM_MASS>
273.24081

>  <JCHEM_MDDR_LIKE_RULE>
0

>  <JCHEM_NUMBER_OF_RINGS>
2

>  <JCHEM_PHYSIOLOGICAL_CHARGE>
-1

>  <JCHEM_PKA>
10.630672

>  <JCHEM_PKA_STRONGEST_ACIDIC>
5.1672449

>  <JCHEM_PKA_STRONGEST_BASIC>
-6.4176836

>  <JCHEM_POLAR_SURFACE_AREA>
103.35

>  <JCHEM_REFRACTIVITY>
72.961197

>  <JCHEM_ROTATABLE_BOND_COUNT>
3

>  <JCHEM_RULE_OF_FIVE>
1

>  <ALOGPS_SOLUBILITY>
5.69e-02 g/l

>  <JCHEM_TRADITIONAL_IUPAC>
tolcapone

>  <JCHEM_VEBER_RULE>
0

>  <DRUGBANK_ID>
DB00323

>  <DRUG_GROUPS>
approved; withdrawn

>  <GENERIC_NAME>
Tolcapone

>  <SYNONYMS>
(3,4-dihydroxy-5-nitrophenyl)(4-methylphenyl)methanone; Tolcapon; Tolcapona; Tolcapone; Tolcaponum

>  <BRANDS>
Sen De Ning; Tasmar

$$$$
Calcium Gluceptate
 OpenBabel02121510022D

 31 28  0  0  1  0  0  0  0  0999 V2000
    8.5230    0.2060    0.0000 Ca  0  2  0  0  0 15  0  0  0  0  0  0
    4.9500   -1.0310    0.0000 O   0  0  0  0  0  0  0  0  0  0  0  0
    4.2360    1.0310    0.0000 O   0  0  0  0  0  0  0  0  0  0  0  0
   12.0950   -1.0310    0.0000 O   0  0  0  0  0  0  0  0  0  0  0  0
   12.8090    1.0310    0.0000 O   0  0  0  0  0  0  0  0  0  0  0  0
    5.6650    1.0310    0.0000 O   0  0  0  0  0  0  0  0  0  0  0  0
   11.3800    1.0310    0.0000 O   0  0  0  0  0  0  0  0  0  0  0  0
    3.5220   -1.0310    0.0000 O   0  0  0  0  0  0  0  0  0  0  0  0
   13.5240   -1.0310    0.0000 O   0  0  0  0  0  0  0  0  0  0  0  0
    6.3790   -1.0310    0.0000 O   0  0  0  0  0  0  0  0  0  0  0  0
   10.6660   -1.0310    0.0000 O   0  0  0  0  0  0  0  0  0  0  0  0
    2.0930   -0.2060    0.0000 O   0  0  0  0  0  0  0  0  0  0  0  0
   14.9520   -0.2060    0.0000 O   0  0  0  0  0  0  0  0  0  0  0  0
    7.8080   -0.2060    0.0000 O   0  5  0  0  0  0  0  0  0  0  0  0
    7.0940    1.0310    0.0000 O   0  0  0  0  0  0  0  0  0  0  0  0
    9.2370   -0.2060    0.0000 O   0  5  0  0  0  0  0  0  0  0  0  0
    9.9520    1.0310    0.0000 O   0  0  0  0  0  0  0  0  0  0  0  0
    4.9500   -0.2060    0.0000 C   0  0  1  0  0  0  0  0  0  0  0  0
    4.2360    0.2060    0.0000 C   0  0  1  0  0  0  0  0  0  0  0  0
   12.0950   -0.2060    0.0000 C   0  0  1  0  0  0  0  0  0  0  0  0
   12.8090    0.2060    0.0000 C   0  0  1  0  0  0  0  0  0  0  0  0
    5.6650    0.2060    0.0000 C   0  0  2  0  0  0  0  0  0  0  0  0
   11.3800    0.2060    0.0000 C   0  0  2  0  0  0  0  0  0  0  0  0
    3.5220   -0.2060    0.0000 C   0  0  1  0  0  0  0  0  0  0  0  0
   13.5240   -0.2060    0.0000 C   0  0  1  0  0  0  0  0  0  0  0  0
    6.3790   -0.2060    0.0000 C   0  0  3  0  0  0  0  0  0  0  0  0
   10.6660   -0.2060    0.0000 C   0  0  3  0  0  0  0  0  0  0  0  0
    2.8070    0.2060    0.0000 C   0  0  0  0  0  0  0  0  0  0  0  0
   14.2380    0.2060    0.0000 C   0  0  0  0  0  0  0  0  0  0  0  0
    7.0940    0.2060    0.0000 C   0  0  0  0  0  0  0  0  0  0  0  0
    9.9520    0.2060    0.0000 C   0  0  0  0  0  0  0  0  0  0  0  0
 10 26  1  0  0  0  0
 11 27  1  0  0  0  0
 12 28  1  0  0  0  0
 13 29  1  0  0  0  0
 14 30  1  0  0  0  0
 15 30  2  0  0  0  0
 16 31  1  0  0  0  0
 17 31  2  0  0  0  0
 18  2  1  1  0  0  0
 18 19  1  0  0  0  0
 18 22  1  0  0  0  0
 19  3  1  1  0  0  0
 19 24  1  0  0  0  0
 20  4  1  6  0  0  0
 20 21  1  0  0  0  0
 20 23  1  0  0  0  0
 21  5  1  6  0  0  0
 21 25  1  0  0  0  0
 22  6  1  1  0  0  0
 22 26  1  0  0  0  0
 23  7  1  6  0  0  0
 23 27  1  0  0  0  0
 24  8  1  6  0  0  0
 24 28  1  0  0  0  0
 25  9  1  1  0  0  0
 25 29  1  0  0  0  0
 26 30  1  0  0  0  0
 27 31  1  0  0  0  0
M  CHG  3   1   2  14  -1  16  -1
M  END
>  <DATABASE_ID>
DB00326

>  <DATABASE_NAME>
drugbank

>  <SMILES>
[Ca+2].OC([C@H](O)[C@@H](O)[C@H](O)[C@H](O)CO)C(=O)[O-].OC([C@H](O)[C@@H](O)[C@H](O)[C@H](O)CO)C(=O)[O-]

>  <INCHI_IDENTIFIER>
InChI=1S/2C7H14O8.Ca/c2*8-1-2(9)3(10)4(11)5(12)6(13)7(14)15;/h2*2-6,8-13H,1H2,(H,14,15);/q;;+2/p-2/t2*2-,3-,4+,5-,6?;/m11./s1

>  <INCHI_KEY>
InChIKey=FATUQANACHZLRT-KMRXSBRUSA-L

>  <JCHEM_ACCEPTOR_COUNT>
8

>  <JCHEM_AVERAGE_POLARIZABILITY>
19.349001

>  <JCHEM_BIOAVAILABILITY>
0

>  <JCHEM_DONOR_COUNT>
6

>  <JCHEM_EXACT_MASS>
490.08469

>  <JCHEM_FORMAL_CHARGE>
0

>  <JCHEM_FORMULA>
C14H26CaO16

>  <JCHEM_GHOSE_FILTER>
0

>  <JCHEM_IUPAC>
calcium bis((3R,4S,5R,6R)-2,3,4,5,6,7-hexahydroxyheptanoate)

>  <ALOGPS_LOGP>
-1.91

>  <JCHEM_LOGP>
-4.0400791

>  <ALOGPS_LOGS>
-1.09

>  <JCHEM_MASS>
490.42499

>  <JCHEM_MDDR_LIKE_RULE>
0

>  <JCHEM_NUMBER_OF_RINGS>
0

>  <JCHEM_PHYSIOLOGICAL_CHARGE>
-1

>  <JCHEM_PKA>
12.467211

>  <JCHEM_PKA_STRONGEST_ACIDIC>
3.384685

>  <JCHEM_PKA_STRONGEST_BASIC>
-2.9742119

>  <JCHEM_POLAR_SURFACE_AREA>
161.50999

>  <JCHEM_REFRACTIVITY>
55.070599

>  <JCHEM_ROTATABLE_BOND_COUNT>
12

>  <JCHEM_RULE_OF_FIVE>
0

>  <ALOGPS_SOLUBILITY>
3.98e+01 g/l

>  <JCHEM_TRADITIONAL_IUPAC>
calcium bis((2xi)-D-gluco-heptonate)

>  <JCHEM_VEBER_RULE>
0

>  <DRUGBANK_ID>
DB00326

>  <DRUG_GROUPS>
approved

>  <GENERIC_NAME>
Calcium Gluceptate

>  <SYNONYMS>
Calcii Glucoheptonas; Calcii glugoheptonas; Calcium Gluceptate; Calcium glucoheptonat; Glucoheptonate de calcium

$$$$
Hydromorphone
 OpenBabel02121510022D

 24 28  0  0  1  0  0  0  0  0999 V2000
    1.9360   -0.2230    0.0000 O   0  0  0  0  0  0  0  0  0  0  0  0
    1.7350   -2.3530    0.0000 O   0  0  0  0  0  0  0  0  0  0  0  0
    1.7350    1.8150    0.0000 O   0  0  0  0  0  0  0  0  0  0  0  0
    5.3440   -1.0940    0.0000 N   0  0  0  0  0  0  0  0  0  0  0  0
    3.2010   -0.6810    0.0000 C   0  0  1  0  0  0  0  0  0  0  0  0
    3.9150   -1.0940    0.0000 C   0  0  2  0  0  0  0  0  0  0  0  0
    4.6300   -0.6810    0.0000 C   0  0  1  0  0  0  0  0  0  0  0  0
    2.4860   -1.0940    0.0000 C   0  0  2  0  0  0  0  0  0  0  0  0
    3.6770   -0.0760    0.0000 C   0  0  0  0  0  0  0  0  0  0  0  0
    3.2010    0.1440    0.0000 C   0  0  0  0  0  0  0  0  0  0  0  0
    3.9150   -1.9190    0.0000 C   0  0  0  0  0  0  0  0  0  0  0  0
    4.6300    0.1440    0.0000 C   0  0  0  0  0  0  0  0  0  0  0  0
    4.8510   -0.0760    0.0000 C   0  0  0  0  0  0  0  0  0  0  0  0
    3.9150    0.5560    0.0000 C   0  0  0  0  0  0  0  0  0  0  0  0
    3.2010   -2.3320    0.0000 C   0  0  0  0  0  0  0  0  0  0  0  0
    2.4860   -1.9190    0.0000 C   0  0  0  0  0  0  0  0  0  0  0  0
    2.4860    0.5560    0.0000 C   0  0  0  0  0  0  0  0  0  0  0  0
    5.9350   -1.7290    0.0000 C   0  0  0  0  0  0  0  0  0  0  0  0
    3.9150    1.3810    0.0000 C   0  0  0  0  0  0  0  0  0  0  0  0
    2.4860    1.3810    0.0000 C   0  0  0  0  0  0  0  0  0  0  0  0
    3.2010    1.7940    0.0000 C   0  0  0  0  0  0  0  0  0  0  0  0
    4.3610   -1.6260    0.0000 H   0  0  0  0  0  0  0  0  0  0  0  0
    4.8680   -1.3330    0.0000 H   0  0  0  0  0  0  0  0  0  0  0  0
    1.8200   -1.2870    0.0000 H   0  0  0  0  0  0  0  0  0  0  0  0
  1  8  1  0  0  0  0
  1 17  1  0  0  0  0
  2 16  2  0  0  0  0
  3 20  1  0  0  0  0
  4  7  1  0  0  0  0
  4 13  1  0  0  0  0
  4 18  1  0  0  0  0
  5  6  1  0  0  0  0
  5  8  1  0  0  0  0
  5  9  1  1  0  0  0
  5 10  1  0  0  0  0
  6  7  1  0  0  0  0
  6 11  1  0  0  0  0
  6 22  1  1  0  0  0
  7 12  1  0  0  0  0
  7 23  1  6  0  0  0
  8 16  1  0  0  0  0
  8 24  1  1  0  0  0
  9 13  1  0  0  0  0
 10 14  1  0  0  0  0
 10 17  2  0  0  0  0
 11 15  1  0  0  0  0
 12 14  1  0  0  0  0
 14 19  2  0  0  0  0
 15 16  1  0  0  0  0
 17 20  1  0  0  0  0
 19 21  1  0  0  0  0
 20 21  2  0  0  0  0
M  END
>  <DATABASE_ID>
DB00327

>  <DATABASE_NAME>
drugbank

>  <SMILES>
O1[C@@H]2[C@]34[C@H]([C@H](N(CC3)C)Cc3c4c1c(O)cc3)CCC2=O

>  <INCHI_IDENTIFIER>
InChI=1S/C17H19NO3/c1-18-7-6-17-10-3-5-13(20)16(17)21-15-12(19)4-2-9(14(15)17)8-11(10)18/h2,4,10-11,16,19H,3,5-8H2,1H3/t10-,11+,16-,17-/m0/s1

>  <INCHI_KEY>
InChIKey=WVLOADHCBXTIJK-YNHQPCIGSA-N

>  <JCHEM_ACCEPTOR_COUNT>
4

>  <JCHEM_AVERAGE_POLARIZABILITY>
30.023249

>  <JCHEM_BIOAVAILABILITY>
1

>  <JCHEM_DONOR_COUNT>
1

>  <JCHEM_EXACT_MASS>
285.13651

>  <JCHEM_FORMAL_CHARGE>
0

>  <JCHEM_FORMULA>
C17H19NO3

>  <JCHEM_GHOSE_FILTER>
1

>  <JCHEM_IUPAC>
(1S,5R,13R,17R)-10-hydroxy-4-methyl-12-oxa-4-azapentacyclo[9.6.1.0^{1,13}.0^{5,17}.0^{7,18}]octadeca-7(18),8,10-trien-14-one

>  <ALOGPS_LOGP>
1.6900001

>  <JCHEM_LOGP>
1.6227497

>  <ALOGPS_LOGS>
-1.8099999

>  <JCHEM_MASS>
285.33771

>  <JCHEM_MDDR_LIKE_RULE>
0

>  <JCHEM_NUMBER_OF_RINGS>
5

>  <JCHEM_PHYSIOLOGICAL_CHARGE>
1

>  <JCHEM_PKA>
18.002079

>  <JCHEM_PKA_STRONGEST_ACIDIC>
10.107628

>  <JCHEM_PKA_STRONGEST_BASIC>
8.5866747

>  <JCHEM_POLAR_SURFACE_AREA>
49.77

>  <JCHEM_REFRACTIVITY>
78.262398

>  <JCHEM_ROTATABLE_BOND_COUNT>
0

>  <JCHEM_RULE_OF_FIVE>
1

>  <ALOGPS_SOLUBILITY>
4.39e+00 g/l

>  <JCHEM_TRADITIONAL_IUPAC>
hydromorphone

>  <JCHEM_VEBER_RULE>
0

>  <DRUGBANK_ID>
DB00327

>  <DRUG_GROUPS>
approved; illicit

>  <GENERIC_NAME>
Hydromorphone

>  <SYNONYMS>
6-Deoxy-7,8-dihydro-6-oxomorphine; 7,8-Dihydromorphinone; Dihydromorfinon; Dihydromorphinone; Dimorphone; Hidromorfona; Hydromorfona; Hydromorphonum; Idromorfone

>  <BRANDS>
Dilaudid; EXALGO; Palladone

>  <SALTS>
Hydromorphone Hydrochloride

$$$$
Indomethacin
 OpenBabel02121510022D

 25 27  0  0  0  0  0  0  0  0999 V2000
    8.7740    2.4560    0.0000 Cl  0  0  0  0  0  0  0  0  0  0  0  0
    2.3640   -0.4980    0.0000 O   0  0  0  0  0  0  0  0  0  0  0  0
    4.9940    2.3890    0.0000 O   0  0  0  0  0  0  0  0  0  0  0  0
    5.2500   -2.5190    0.0000 O   0  0  0  0  0  0  0  0  0  0  0  0
    4.1870   -1.5650    0.0000 O   0  0  0  0  0  0  0  0  0  0  0  0
    5.2890    0.9910    0.0000 N   0  0  0  0  0  0  0  0  0  0  0  0
    5.2890   -0.3370    0.0000 C   0  0  0  0  0  0  0  0  0  0  0  0
    4.5080   -0.0850    0.0000 C   0  0  0  0  0  0  0  0  0  0  0  0
    4.5080    0.7400    0.0000 C   0  0  0  0  0  0  0  0  0  0  0  0
    5.7700    0.3270    0.0000 C   0  0  0  0  0  0  0  0  0  0  0  0
    5.5450   -1.1210    0.0000 C   0  0  0  0  0  0  0  0  0  0  0  0
    3.7940   -0.4980    0.0000 C   0  0  0  0  0  0  0  0  0  0  0  0
    3.7940    1.1520    0.0000 C   0  0  0  0  0  0  0  0  0  0  0  0
    6.5950    0.3270    0.0000 C   0  0  0  0  0  0  0  0  0  0  0  0
    5.5450    1.7750    0.0000 C   0  0  0  0  0  0  0  0  0  0  0  0
    3.0790   -0.0850    0.0000 C   0  0  0  0  0  0  0  0  0  0  0  0
    3.0790    0.7400    0.0000 C   0  0  0  0  0  0  0  0  0  0  0  0
    6.3520    1.9460    0.0000 C   0  0  0  0  0  0  0  0  0  0  0  0
    4.9940   -1.7350    0.0000 C   0  0  0  0  0  0  0  0  0  0  0  0
    6.6090    2.7300    0.0000 C   0  0  0  0  0  0  0  0  0  0  0  0
    6.9030    1.3310    0.0000 C   0  0  0  0  0  0  0  0  0  0  0  0
    7.4160    2.9000    0.0000 C   0  0  0  0  0  0  0  0  0  0  0  0
    7.7100    1.5020    0.0000 C   0  0  0  0  0  0  0  0  0  0  0  0
    7.9670    2.2860    0.0000 C   0  0  0  0  0  0  0  0  0  0  0  0
    1.6500   -0.0850    0.0000 C   0  0  0  0  0  0  0  0  0  0  0  0
  1 24  1  0  0  0  0
  2 16  1  0  0  0  0
  2 25  1  0  0  0  0
  3 15  2  0  0  0  0
  4 19  1  0  0  0  0
  5 19  2  0  0  0  0
  6  9  1  0  0  0  0
  6 10  1  0  0  0  0
  6 15  1  0  0  0  0
  7  8  1  0  0  0  0
  7 10  2  0  0  0  0
  7 11  1  0  0  0  0
  8  9  2  0  0  0  0
  8 12  1  0  0  0  0
  9 13  1  0  0  0  0
 10 14  1  0  0  0  0
 11 19  1  0  0  0  0
 12 16  2  0  0  0  0
 13 17  2  0  0  0  0
 15 18  1  0  0  0  0
 16 17  1  0  0  0  0
 18 20  2  0  0  0  0
 18 21  1  0  0  0  0
 20 22  1  0  0  0  0
 21 23  2  0  0  0  0
 22 24  2  0  0  0  0
 23 24  1  0  0  0  0
M  END
>  <DATABASE_ID>
DB00328

>  <DATABASE_NAME>
drugbank

>  <SMILES>
Clc1ccc(cc1)C(=O)n1c2c(cc(OC)cc2)c(CC(O)=O)c1C

>  <INCHI_IDENTIFIER>
InChI=1S/C19H16ClNO4/c1-11-15(10-18(22)23)16-9-14(25-2)7-8-17(16)21(11)19(24)12-3-5-13(20)6-4-12/h3-9H,10H2,1-2H3,(H,22,23)

>  <INCHI_KEY>
InChIKey=CGIGDMFJXJATDK-UHFFFAOYSA-N

>  <JCHEM_ACCEPTOR_COUNT>
4

>  <JCHEM_AVERAGE_POLARIZABILITY>
36.640717

>  <JCHEM_BIOAVAILABILITY>
1

>  <JCHEM_DONOR_COUNT>
1

>  <JCHEM_EXACT_MASS>
357.07678

>  <JCHEM_FORMAL_CHARGE>
0

>  <JCHEM_FORMULA>
C19H16ClNO4

>  <JCHEM_GHOSE_FILTER>
1

>  <JCHEM_IUPAC>
2-{1-[(4-chlorophenyl)carbonyl]-5-methoxy-2-methyl-1H-indol-3-yl}acetic acid

>  <ALOGPS_LOGP>
4.25

>  <JCHEM_LOGP>
3.5296743

>  <ALOGPS_LOGS>
-5.1700001

>  <JCHEM_MASS>
357.78799

>  <JCHEM_MDDR_LIKE_RULE>
0

>  <JCHEM_NUMBER_OF_RINGS>
3

>  <JCHEM_PHYSIOLOGICAL_CHARGE>
-1

>  <JCHEM_PKA_STRONGEST_ACIDIC>
3.8027439

>  <JCHEM_PKA_STRONGEST_BASIC>
-2.2657714

>  <JCHEM_POLAR_SURFACE_AREA>
68.529999

>  <JCHEM_REFRACTIVITY>
94.8106

>  <JCHEM_ROTATABLE_BOND_COUNT>
4

>  <JCHEM_RULE_OF_FIVE>
1

>  <ALOGPS_SOLUBILITY>
2.40e-03 g/l

>  <JCHEM_TRADITIONAL_IUPAC>
indomethacin

>  <JCHEM_VEBER_RULE>
0

>  <DRUGBANK_ID>
DB00328

>  <DRUG_GROUPS>
approved; investigational

>  <GENERIC_NAME>
Indomethacin

>  <SYNONYMS>
1-(p-chlorobenzoyl)-5-methoxy-2-methylindole-3-acetic acid; Indometacin

>  <BRANDS>
Arthrexin; Elmetacin; Indaflex; Indocid; Indocin; Indolar SR; Indomed; Indoxen; Metindol; Mikametan; Nu-Indo; Reumacide; Tivorbex

$$$$
Ethambutol
 OpenBabel02121510022D

 14 13  0  0  1  0  0  0  0  0999 V2000
    9.6690   -8.1680    0.0000 N   0  0  0  0  0  0  0  0  0  0  0  0
    7.5010   -8.5710    0.0000 N   0  0  0  0  0  0  0  0  0  0  0  0
   11.1080   -9.8370    0.0000 O   0  0  0  0  0  0  0  0  0  0  0  0
    7.5010   -6.9210    0.0000 O   0  0  0  0  0  0  0  0  0  0  0  0
    6.8100   -8.1680    0.0000 C   0  0  2  0  0  0  0  0  0  0  0  0
   10.3790   -8.5900    0.0000 C   0  0  2  0  0  0  0  0  0  0  0  0
    8.2490   -8.1680    0.0000 C   0  0  0  0  0  0  0  0  0  0  0  0
    8.9400   -8.5900    0.0000 C   0  0  0  0  0  0  0  0  0  0  0  0
    6.8100   -7.3430    0.0000 C   0  0  0  0  0  0  0  0  0  0  0  0
   10.3790   -9.4150    0.0000 C   0  0  0  0  0  0  0  0  0  0  0  0
    6.0620   -8.5710    0.0000 C   0  0  0  0  0  0  0  0  0  0  0  0
   11.1080   -8.1680    0.0000 C   0  0  0  0  0  0  0  0  0  0  0  0
    5.3520   -8.1680    0.0000 C   0  0  0  0  0  0  0  0  0  0  0  0
   11.8230   -8.5800    0.0000 C   0  0  0  0  0  0  0  0  0  0  0  0
  1  8  1  0  0  0  0
  2  7  1  0  0  0  0
  3 10  1  0  0  0  0
  4  9  1  0  0  0  0
  5  2  1  1  0  0  0
  5  9  1  0  0  0  0
  5 11  1  0  0  0  0
  6  1  1  1  0  0  0
  6 10  1  0  0  0  0
  6 12  1  0  0  0  0
  7  8  1  0  0  0  0
 11 13  1  0  0  0  0
 12 14  1  0  0  0  0
M  END
>  <DATABASE_ID>
DB00330

>  <DATABASE_NAME>
drugbank

>  <SMILES>
OC[C@@H](NCCN[C@@H](CC)CO)CC

>  <INCHI_IDENTIFIER>
InChI=1S/C10H24N2O2/c1-3-9(7-13)11-5-6-12-10(4-2)8-14/h9-14H,3-8H2,1-2H3/t9-,10-/m0/s1

>  <INCHI_KEY>
InChIKey=AEUTYOVWOVBAKS-UWVGGRQHSA-N

>  <JCHEM_ACCEPTOR_COUNT>
4

>  <JCHEM_AVERAGE_POLARIZABILITY>
24.469246

>  <JCHEM_BIOAVAILABILITY>
1

>  <JCHEM_DONOR_COUNT>
4

>  <JCHEM_EXACT_MASS>
204.18378

>  <JCHEM_FORMAL_CHARGE>
0

>  <JCHEM_FORMULA>
C10H24N2O2

>  <JCHEM_GHOSE_FILTER>
1

>  <JCHEM_IUPAC>
(2S)-2-[(2-{[(2S)-1-hydroxybutan-2-yl]amino}ethyl)amino]butan-1-ol

>  <ALOGPS_LOGP>
-0.12

>  <JCHEM_LOGP>
-0.059291072

>  <ALOGPS_LOGS>
-1.4299999

>  <JCHEM_MASS>
204.3098

>  <JCHEM_MDDR_LIKE_RULE>
0

>  <JCHEM_NUMBER_OF_RINGS>
0

>  <JCHEM_PHYSIOLOGICAL_CHARGE>
1

>  <JCHEM_PKA>
15.421968

>  <JCHEM_PKA_STRONGEST_ACIDIC>
14.819909

>  <JCHEM_PKA_STRONGEST_BASIC>
9.5517044

>  <JCHEM_POLAR_SURFACE_AREA>
64.519997

>  <JCHEM_REFRACTIVITY>
57.888

>  <JCHEM_ROTATABLE_BOND_COUNT>
9

>  <JCHEM_RULE_OF_FIVE>
1

>  <ALOGPS_SOLUBILITY>
7.58e+00 g/l

>  <JCHEM_TRADITIONAL_IUPAC>
ethambutol

>  <JCHEM_VEBER_RULE>
0

>  <DRUGBANK_ID>
DB00330

>  <DRUG_GROUPS>
approved

>  <GENERIC_NAME>
Ethambutol

>  <SYNONYMS>
(+)-2,2'-(ethylenediimino)di-1-butanol; (+)-ethambutol; (+)-S,S-ethambutol; EMB; Etambutol; Etambutolo; Ethambutolum; S,S-Ethambutol

>  <BRANDS>
Etibi; Myambutol; Tibutol

>  <SALTS>
Ethambutol Hydrochloride

$$$$
Metformin
 OpenBabel02121510022D

  9  8  0  0  0  0  0  0  0  0999 V2000
   -3.1880    1.3440    0.0000 N   0  0  0  0  0  0  0  0  0  0  0  0
   -2.4730    0.1060    0.0000 N   0  0  0  0  0  0  0  0  0  0  0  0
   -2.4730    0.9310    0.0000 C   0  0  0  0  0  0  0  0  0  0  0  0
   -1.7590    1.3440    0.0000 N   0  0  0  0  0  0  0  0  0  0  0  0
   -1.0440    0.1060    0.0000 N   0  0  0  0  0  0  0  0  0  0  0  0
   -1.0440    0.9310    0.0000 C   0  0  0  0  0  0  0  0  0  0  0  0
   -0.3300    2.1690    0.0000 C   0  0  0  0  0  0  0  0  0  0  0  0
   -0.3300    1.3440    0.0000 N   0  0  0  0  0  0  0  0  0  0  0  0
    0.3850    0.9310    0.0000 C   0  0  0  0  0  0  0  0  0  0  0  0
  1  3  1  0  0  0  0
  2  3  2  0  0  0  0
  3  4  1  0  0  0  0
  4  6  1  0  0  0  0
  5  6  2  0  0  0  0
  6  8  1  0  0  0  0
  7  8  1  0  0  0  0
  8  9  1  0  0  0  0
M  END
>  <DATABASE_ID>
DB00331

>  <DATABASE_NAME>
drugbank

>  <SMILES>
N(C(NC(N)=N)=N)(C)C

>  <INCHI_IDENTIFIER>
InChI=1S/C4H11N5/c1-9(2)4(7)8-3(5)6/h1-2H3,(H5,5,6,7,8)

>  <INCHI_KEY>
InChIKey=XZWYZXLIPXDOLR-UHFFFAOYSA-N

>  <JCHEM_ACCEPTOR_COUNT>
5

>  <JCHEM_AVERAGE_POLARIZABILITY>
13.427402

>  <JCHEM_BIOAVAILABILITY>
1

>  <JCHEM_DONOR_COUNT>
4

>  <JCHEM_EXACT_MASS>
129.10144

>  <JCHEM_FORMAL_CHARGE>
0

>  <JCHEM_FORMULA>
C4H11N5

>  <JCHEM_GHOSE_FILTER>
0

>  <JCHEM_IUPAC>
1-carbamimidamido-N,N-dimethylmethanimidamide

>  <ALOGPS_LOGP>
-1.83

>  <JCHEM_LOGP>
-0.91842926

>  <ALOGPS_LOGS>
-1.97

>  <JCHEM_MASS>
129.1636

>  <JCHEM_MDDR_LIKE_RULE>
0

>  <JCHEM_NUMBER_OF_RINGS>
0

>  <JCHEM_PHYSIOLOGICAL_CHARGE>
2

>  <JCHEM_PKA_STRONGEST_BASIC>
12.32515

>  <JCHEM_POLAR_SURFACE_AREA>
88.989998

>  <JCHEM_REFRACTIVITY>
56.6427

>  <JCHEM_ROTATABLE_BOND_COUNT>
0

>  <JCHEM_RULE_OF_FIVE>
1

>  <ALOGPS_SOLUBILITY>
1.38e+00 g/l

>  <JCHEM_TRADITIONAL_IUPAC>
metformin

>  <JCHEM_VEBER_RULE>
0

>  <DRUGBANK_ID>
DB00331

>  <DRUG_GROUPS>
approved

>  <GENERIC_NAME>
Metformin

>  <SYNONYMS>
Dimethylbiguanid; Haurymellin; Metformin; Metformina; Metformine; Metformine pamoate; Metforminum; N,N-Dimethylimidodicarbonimidic diamide

>  <BRANDS>
Apo-Metformin; Fortamet; Gen-Metformin; Glucophage; Glucophage XR; Glumetza; Mylan-Metformin; Novo-Metformin; Nu-Metformin; PMS-Metformin; Ran-Metformin; Ratio-Metformin; Riomet; Sandoz Metformin; Teva-Metformin

>  <SALTS>
Metformin Hydrochloride

$$$$
Methadone
 OpenBabel02121510022D

 23 24  0  0  1  0  0  0  0  0999 V2000
    5.8950    0.7140    0.0000 O   0  0  0  0  0  0  0  0  0  0  0  0
    2.4250   -0.2480    0.0000 N   0  0  0  0  0  0  0  0  0  0  0  0
    4.6580    0.0000    0.0000 C   0  0  0  0  0  0  0  0  0  0  0  0
    3.8320    0.0000    0.0000 C   0  0  0  0  0  0  0  0  0  0  0  0
    3.0570    0.2820    0.0000 C   0  0  3  0  0  0  0  0  0  0  0  0
    4.6580    0.8250    0.0000 C   0  0  0  0  0  0  0  0  0  0  0  0
    4.6580   -0.8250    0.0000 C   0  0  0  0  0  0  0  0  0  0  0  0
    5.4820    0.0000    0.0000 C   0  0  0  0  0  0  0  0  0  0  0  0
    2.9140    1.0950    0.0000 C   0  0  0  0  0  0  0  0  0  0  0  0
    5.8950   -0.7140    0.0000 C   0  0  0  0  0  0  0  0  0  0  0  0
    3.9430    1.2380    0.0000 C   0  0  0  0  0  0  0  0  0  0  0  0
    5.3720   -1.2380    0.0000 C   0  0  0  0  0  0  0  0  0  0  0  0
    5.3720    1.2380    0.0000 C   0  0  0  0  0  0  0  0  0  0  0  0
    3.9430   -1.2380    0.0000 C   0  0  0  0  0  0  0  0  0  0  0  0
    1.6500    0.0340    0.0000 C   0  0  0  0  0  0  0  0  0  0  0  0
    2.5680   -1.0600    0.0000 C   0  0  0  0  0  0  0  0  0  0  0  0
    6.7200   -0.7140    0.0000 C   0  0  0  0  0  0  0  0  0  0  0  0
    3.9430    2.0620    0.0000 C   0  0  0  0  0  0  0  0  0  0  0  0
    5.3720   -2.0620    0.0000 C   0  0  0  0  0  0  0  0  0  0  0  0
    5.3720    2.0620    0.0000 C   0  0  0  0  0  0  0  0  0  0  0  0
    3.9430   -2.0620    0.0000 C   0  0  0  0  0  0  0  0  0  0  0  0
    4.6580    2.4750    0.0000 C   0  0  0  0  0  0  0  0  0  0  0  0
    4.6580   -2.4750    0.0000 C   0  0  0  0  0  0  0  0  0  0  0  0
  1  8  2  0  0  0  0
  2  5  1  0  0  0  0
  2 15  1  0  0  0  0
  2 16  1  0  0  0  0
  3  4  1  0  0  0  0
  3  6  1  0  0  0  0
  3  7  1  0  0  0  0
  3  8  1  0  0  0  0
  4  5  1  0  0  0  0
  5  9  1  0  0  0  0
  6 11  2  0  0  0  0
  6 13  1  0  0  0  0
  7 12  2  0  0  0  0
  7 14  1  0  0  0  0
  8 10  1  0  0  0  0
 10 17  1  0  0  0  0
 11 18  1  0  0  0  0
 12 19  1  0  0  0  0
 13 20  2  0  0  0  0
 14 21  2  0  0  0  0
 18 22  2  0  0  0  0
 19 23  2  0  0  0  0
 20 22  1  0  0  0  0
 21 23  1  0  0  0  0
M  END
>  <DATABASE_ID>
DB00333

>  <DATABASE_NAME>
drugbank

>  <SMILES>
O=C(C(CC(N(C)C)C)(c1ccccc1)c1ccccc1)CC

>  <INCHI_IDENTIFIER>
InChI=1S/C21H27NO/c1-5-20(23)21(16-17(2)22(3)4,18-12-8-6-9-13-18)19-14-10-7-11-15-19/h6-15,17H,5,16H2,1-4H3

>  <INCHI_KEY>
InChIKey=USSIQXCVUWKGNF-UHFFFAOYSA-N

>  <JCHEM_ACCEPTOR_COUNT>
2

>  <JCHEM_AVERAGE_POLARIZABILITY>
36.291649

>  <JCHEM_BIOAVAILABILITY>
1

>  <JCHEM_DONOR_COUNT>
0

>  <JCHEM_EXACT_MASS>
309.20926

>  <JCHEM_FORMAL_CHARGE>
0

>  <JCHEM_FORMULA>
C21H27NO

>  <JCHEM_GHOSE_FILTER>
1

>  <JCHEM_IUPAC>
6-(dimethylamino)-4,4-diphenylheptan-3-one

>  <ALOGPS_LOGP>
4.1399999

>  <JCHEM_LOGP>
5.0071716

>  <ALOGPS_LOGS>
-4.7199998

>  <JCHEM_MASS>
309.44519

>  <JCHEM_MDDR_LIKE_RULE>
0

>  <JCHEM_NUMBER_OF_RINGS>
2

>  <JCHEM_PHYSIOLOGICAL_CHARGE>
1

>  <JCHEM_PKA_STRONGEST_ACIDIC>
18.780819

>  <JCHEM_PKA_STRONGEST_BASIC>
9.1172104

>  <JCHEM_POLAR_SURFACE_AREA>
20.309999

>  <JCHEM_REFRACTIVITY>
97.268898

>  <JCHEM_ROTATABLE_BOND_COUNT>
7

>  <JCHEM_RULE_OF_FIVE>
0

>  <ALOGPS_SOLUBILITY>
5.90e-03 g/l

>  <JCHEM_TRADITIONAL_IUPAC>
methadone

>  <JCHEM_VEBER_RULE>
1

>  <DRUGBANK_ID>
DB00333

>  <DRUG_GROUPS>
approved

>  <GENERIC_NAME>
Methadone

>  <SYNONYMS>
(+/-)-Methadone; (±)-methadone; 6-Dimethylamino-4,4-diphenyl-3-heptanone; dl-Methadone

>  <BRANDS>
Adolan; Depridol; DISKETS; Dolophine; Heptadon; Heptanon; Ketalgin; Mephenon; METHADOSE; Physeptone

>  <SALTS>
Methadone Hydrochloride

$$$$
Olanzapine
 OpenBabel02121510022D

 22 25  0  0  0  0  0  0  0  0999 V2000
    0.8060   -0.5680    0.0000 N   0  0  0  0  0  0  0  0  0  0  0  0
    1.6310   -0.5680    0.0000 C   0  0  0  0  0  0  0  0  0  0  0  0
    2.0440   -1.2820    0.0000 C   0  0  0  0  0  0  0  0  0  0  0  0
    0.3190   -1.8800    0.0000 C   0  0  0  0  0  0  0  0  0  0  0  0
    0.2230   -1.1510    0.0000 C   0  0  0  0  0  0  0  0  0  0  0  0
   -0.5510   -0.7460    0.0000 C   0  0  0  0  0  0  0  0  0  0  0  0
   -1.2060   -1.2490    0.0000 C   0  0  0  0  0  0  0  0  0  0  0  0
   -0.3360   -2.3820    0.0000 C   0  0  0  0  0  0  0  0  0  0  0  0
   -1.0980   -2.0670    0.0000 C   0  0  0  0  0  0  0  0  0  0  0  0
    1.0330   -2.2930    0.0000 N   0  0  0  0  0  0  0  0  0  0  0  0
    1.8300   -2.0790    0.0000 C   0  0  0  0  0  0  0  0  0  0  0  0
    2.8680   -1.2390    0.0000 C   0  0  0  0  0  0  0  0  0  0  0  0
    2.5220   -2.5280    0.0000 S   0  0  0  0  0  0  0  0  0  0  0  0
    3.1630   -2.0090    0.0000 C   0  0  0  0  0  0  0  0  0  0  0  0
    2.2150    0.0160    0.0000 N   0  0  0  0  0  0  0  0  0  0  0  0
    3.9600   -2.2230    0.0000 C   0  0  0  0  0  0  0  0  0  0  0  0
    2.0010    0.8130    0.0000 C   0  0  0  0  0  0  0  0  0  0  0  0
    3.0120   -0.1980    0.0000 C   0  0  0  0  0  0  0  0  0  0  0  0
    2.5840    1.3960    0.0000 C   0  0  0  0  0  0  0  0  0  0  0  0
    3.5950    0.3860    0.0000 C   0  0  0  0  0  0  0  0  0  0  0  0
    3.3810    1.1820    0.0000 N   0  0  0  0  0  0  0  0  0  0  0  0
    3.9650    1.7660    0.0000 C   0  0  0  0  0  0  0  0  0  0  0  0
  1  2  2  0  0  0  0
  1  5  1  0  0  0  0
  2  3  1  0  0  0  0
  2 15  1  0  0  0  0
  3 11  2  0  0  0  0
  3 12  1  0  0  0  0
  4  5  1  0  0  0  0
  4  8  2  0  0  0  0
  4 10  1  0  0  0  0
  5  6  2  0  0  0  0
  6  7  1  0  0  0  0
  7  9  2  0  0  0  0
  8  9  1  0  0  0  0
 10 11  1  0  0  0  0
 11 13  1  0  0  0  0
 12 14  2  0  0  0  0
 13 14  1  0  0  0  0
 14 16  1  0  0  0  0
 15 17  1  0  0  0  0
 15 18  1  0  0  0  0
 17 19  1  0  0  0  0
 18 20  1  0  0  0  0
 19 21  1  0  0  0  0
 20 21  1  0  0  0  0
 21 22  1  0  0  0  0
M  END
>  <DATABASE_ID>
DB00334

>  <DATABASE_NAME>
drugbank

>  <SMILES>
s1c2Nc3c(N=C(N4CCN(CC4)C)c2cc1C)cccc3

>  <INCHI_IDENTIFIER>
InChI=1S/C17H20N4S/c1-12-11-13-16(21-9-7-20(2)8-10-21)18-14-5-3-4-6-15(14)19-17(13)22-12/h3-6,11,19H,7-10H2,1-2H3

>  <INCHI_KEY>
InChIKey=KVWDHTXUZHCGIO-UHFFFAOYSA-N

>  <JCHEM_ACCEPTOR_COUNT>
4

>  <JCHEM_AVERAGE_POLARIZABILITY>
35.371841

>  <JCHEM_BIOAVAILABILITY>
1

>  <JCHEM_DONOR_COUNT>
1

>  <JCHEM_EXACT_MASS>
312.14087

>  <JCHEM_FORMAL_CHARGE>
0

>  <JCHEM_FORMULA>
C17H20N4S

>  <JCHEM_GHOSE_FILTER>
1

>  <JCHEM_IUPAC>
5-methyl-8-(4-methylpiperazin-1-yl)-4-thia-2,9-diazatricyclo[8.4.0.0^{3,7}]tetradeca-1(14),3(7),5,8,10,12-hexaene

>  <ALOGPS_LOGP>
3.6099999

>  <JCHEM_LOGP>
3.388495

>  <ALOGPS_LOGS>
-3.52

>  <JCHEM_MASS>
312.43201

>  <JCHEM_MDDR_LIKE_RULE>
0

>  <JCHEM_NUMBER_OF_RINGS>
4

>  <JCHEM_PHYSIOLOGICAL_CHARGE>
1

>  <JCHEM_PKA_STRONGEST_ACIDIC>
14.174461

>  <JCHEM_PKA_STRONGEST_BASIC>
7.2424397

>  <JCHEM_POLAR_SURFACE_AREA>
30.870001

>  <JCHEM_REFRACTIVITY>
93.873703

>  <JCHEM_ROTATABLE_BOND_COUNT>
0

>  <JCHEM_RULE_OF_FIVE>
1

>  <ALOGPS_SOLUBILITY>
9.42e-02 g/l

>  <JCHEM_TRADITIONAL_IUPAC>
zyprexa

>  <JCHEM_VEBER_RULE>
1

>  <DRUGBANK_ID>
DB00334

>  <DRUG_GROUPS>
approved; investigational

>  <GENERIC_NAME>
Olanzapine

>  <SYNONYMS>
2-methyl-4-(4-methyl-1-piperazinyl)-10H-thieno[2,3-b][1,5]benzodiazepine; Olanzapin; Olanzapine; Olanzapinum

>  <BRANDS>
Aedon; Amulsin; Apisco; Apsico; Arkolamyl; Caprilon; CO Olanzapine; Deprex; Dominazol; Dopin; Egolanza; Elynza; Frenial; Jolyon-MD; Kozylex; Lanopin; Lanzapin; Lanzep; Lapenza; Lapozan; Lazapix; Zyprexa

>  <SALTS>
Olanzapine pamoate

$$$$
Atenolol
 OpenBabel02121510022D

 19 19  0  0  1  0  0  0  0  0999 V2000
    4.5080   -0.5400    0.0000 O   0  0  0  0  0  0  0  0  0  0  0  0
    4.5080   -2.1900    0.0000 O   0  0  0  0  0  0  0  0  0  0  0  0
    5.9370    2.7600    0.0000 O   0  0  0  0  0  0  0  0  0  0  0  0
    3.0790   -3.0150    0.0000 N   0  0  0  0  0  0  0  0  0  0  0  0
    5.2220    3.9970    0.0000 N   0  0  0  0  0  0  0  0  0  0  0  0
    3.0790   -2.1900    0.0000 C   0  0  0  0  0  0  0  0  0  0  0  0
    3.7940   -1.7780    0.0000 C   0  0  3  0  0  0  0  0  0  0  0  0
    2.3640   -3.4280    0.0000 C   0  0  0  0  0  0  0  0  0  0  0  0
    3.7940   -0.9530    0.0000 C   0  0  0  0  0  0  0  0  0  0  0  0
    2.3640   -4.2530    0.0000 C   0  0  0  0  0  0  0  0  0  0  0  0
    1.6500   -3.0150    0.0000 C   0  0  0  0  0  0  0  0  0  0  0  0
    4.5080    0.2850    0.0000 C   0  0  0  0  0  0  0  0  0  0  0  0
    4.5080    1.9350    0.0000 C   0  0  0  0  0  0  0  0  0  0  0  0
    5.2220    0.6970    0.0000 C   0  0  0  0  0  0  0  0  0  0  0  0
    3.7940    0.6970    0.0000 C   0  0  0  0  0  0  0  0  0  0  0  0
    5.2220    1.5220    0.0000 C   0  0  0  0  0  0  0  0  0  0  0  0
    3.7940    1.5220    0.0000 C   0  0  0  0  0  0  0  0  0  0  0  0
    4.5080    2.7600    0.0000 C   0  0  0  0  0  0  0  0  0  0  0  0
    5.2220    3.1720    0.0000 C   0  0  0  0  0  0  0  0  0  0  0  0
  1  9  1  0  0  0  0
  1 12  1  0  0  0  0
  2  7  1  0  0  0  0
  3 19  2  0  0  0  0
  4  6  1  0  0  0  0
  4  8  1  0  0  0  0
  5 19  1  0  0  0  0
  6  7  1  0  0  0  0
  7  9  1  0  0  0  0
  8 10  1  0  0  0  0
  8 11  1  0  0  0  0
 12 14  2  0  0  0  0
 12 15  1  0  0  0  0
 13 16  2  0  0  0  0
 13 17  1  0  0  0  0
 13 18  1  0  0  0  0
 14 16  1  0  0  0  0
 15 17  2  0  0  0  0
 18 19  1  0  0  0  0
M  END
>  <DATABASE_ID>
DB00335

>  <DATABASE_NAME>
drugbank

>  <SMILES>
O(CC(O)CNC(C)C)c1ccc(cc1)CC(=O)N

>  <INCHI_IDENTIFIER>
InChI=1S/C14H22N2O3/c1-10(2)16-8-12(17)9-19-13-5-3-11(4-6-13)7-14(15)18/h3-6,10,12,16-17H,7-9H2,1-2H3,(H2,15,18)

>  <INCHI_KEY>
InChIKey=METKIMKYRPQLGS-UHFFFAOYSA-N

>  <JCHEM_ACCEPTOR_COUNT>
4

>  <JCHEM_AVERAGE_POLARIZABILITY>
29.983036

>  <JCHEM_BIOAVAILABILITY>
1

>  <JCHEM_DONOR_COUNT>
3

>  <JCHEM_EXACT_MASS>
266.16306

>  <JCHEM_FORMAL_CHARGE>
0

>  <JCHEM_FORMULA>
C14H22N2O3

>  <JCHEM_GHOSE_FILTER>
1

>  <JCHEM_IUPAC>
2-(4-{2-hydroxy-3-[(propan-2-yl)amino]propoxy}phenyl)acetamide

>  <ALOGPS_LOGP>
0.56999999

>  <JCHEM_LOGP>
0.42502484

>  <ALOGPS_LOGS>
-2.79

>  <JCHEM_MASS>
266.33609

>  <JCHEM_MDDR_LIKE_RULE>
0

>  <JCHEM_NUMBER_OF_RINGS>
1

>  <JCHEM_PHYSIOLOGICAL_CHARGE>
1

>  <JCHEM_PKA>
15.950096

>  <JCHEM_PKA_STRONGEST_ACIDIC>
14.078504

>  <JCHEM_PKA_STRONGEST_BASIC>
9.6661663

>  <JCHEM_POLAR_SURFACE_AREA>
84.580002

>  <JCHEM_REFRACTIVITY>
73.505302

>  <JCHEM_ROTATABLE_BOND_COUNT>
8

>  <JCHEM_RULE_OF_FIVE>
1

>  <ALOGPS_SOLUBILITY>
4.29e-01 g/l

>  <JCHEM_TRADITIONAL_IUPAC>
atenolol

>  <JCHEM_VEBER_RULE>
0

>  <DRUGBANK_ID>
DB00335

>  <DRUG_GROUPS>
approved

>  <GENERIC_NAME>
Atenolol

>  <SYNONYMS>
1-p-Carbamoylmethylphenoxy-3-isopropylamino-2-propanol; 2-(p-(2-Hydroxy-3-(isopropylamino)propoxy)phenyl)acetamide; 4-(2-Hydroxy-3-((1-methylethyl)amino)propoxy)benzeneacetamide

>  <BRANDS>
Myocord; Normiten; Tenormin

$$$$
Nitrofural
 OpenBabel02121510022D

 14 14  0  0  0  0  0  0  0  0999 V2000
    3.7150   -0.6540    0.0000 O   0  0  0  0  0  0  0  0  0  0  0  0
    1.6500    0.1280    0.0000 O   0  5  0  0  0  0  0  0  0  0  0  0
    2.0920   -1.2320    0.0000 O   0  0  0  0  0  0  0  0  0  0  0  0
    7.0060    1.2320    0.0000 O   0  0  0  0  0  0  0  0  0  0  0  0
    2.2630   -0.4240    0.0000 N   0  3  0  0  0  0  0  0  0  0  0  0
    5.7800    0.1280    0.0000 N   0  0  0  0  0  0  0  0  0  0  0  0
    6.5650   -0.1280    0.0000 N   0  0  0  0  0  0  0  0  0  0  0  0
    7.9620    0.1700    0.0000 N   0  0  0  0  0  0  0  0  0  0  0  0
    4.3820   -0.1700    0.0000 C   0  0  0  0  0  0  0  0  0  0  0  0
    4.1280    0.6150    0.0000 C   0  0  0  0  0  0  0  0  0  0  0  0
    3.0480   -0.1700    0.0000 C   0  0  0  0  0  0  0  0  0  0  0  0
    3.3020    0.6150    0.0000 C   0  0  0  0  0  0  0  0  0  0  0  0
    5.1670   -0.4240    0.0000 C   0  0  0  0  0  0  0  0  0  0  0  0
    7.1780    0.4240    0.0000 C   0  0  0  0  0  0  0  0  0  0  0  0
  1  9  1  0  0  0  0
  1 11  1  0  0  0  0
  2  5  1  0  0  0  0
  3  5  2  0  0  0  0
  4 14  2  0  0  0  0
  5 11  1  0  0  0  0
  6  7  1  0  0  0  0
  6 13  2  0  0  0  0
  7 14  1  0  0  0  0
  8 14  1  0  0  0  0
  9 10  2  0  0  0  0
  9 13  1  0  0  0  0
 10 12  1  0  0  0  0
 11 12  2  0  0  0  0
M  CHG  2   2  -1   5   1
M  END
>  <DATABASE_ID>
DB00336

>  <DATABASE_NAME>
drugbank

>  <SMILES>
o1c(ccc1[N+](=O)[O-])\C=N\NC(=O)N

>  <INCHI_IDENTIFIER>
InChI=1S/C6H6N4O4/c7-6(11)9-8-3-4-1-2-5(14-4)10(12)13/h1-3H,(H3,7,9,11)/b8-3+

>  <INCHI_KEY>
InChIKey=IAIWVQXQOWNYOU-FPYGCLRLSA-N

>  <JCHEM_ACCEPTOR_COUNT>
4

>  <JCHEM_AVERAGE_POLARIZABILITY>
16.923786

>  <JCHEM_BIOAVAILABILITY>
1

>  <JCHEM_DONOR_COUNT>
2

>  <JCHEM_EXACT_MASS>
198.03891

>  <JCHEM_FORMAL_CHARGE>
0

>  <JCHEM_FORMULA>
C6H6N4O4

>  <JCHEM_GHOSE_FILTER>
1

>  <JCHEM_IUPAC>
[(E)-[(5-nitrofuran-2-yl)methylidene]amino]urea

>  <ALOGPS_LOGP>
0.23

>  <JCHEM_LOGP>
-0.13506338

>  <ALOGPS_LOGS>
-2.8699999

>  <JCHEM_MASS>
198.1362

>  <JCHEM_MDDR_LIKE_RULE>
0

>  <JCHEM_NUMBER_OF_RINGS>
1

>  <JCHEM_PHYSIOLOGICAL_CHARGE>
0

>  <JCHEM_PKA>
19.07135

>  <JCHEM_PKA_STRONGEST_ACIDIC>
11.79266

>  <JCHEM_PKA_STRONGEST_BASIC>
-1.9698433

>  <JCHEM_POLAR_SURFACE_AREA>
126.44

>  <JCHEM_REFRACTIVITY>
45.210602

>  <JCHEM_ROTATABLE_BOND_COUNT>
3

>  <JCHEM_RULE_OF_FIVE>
1

>  <ALOGPS_SOLUBILITY>
2.68e-01 g/l

>  <JCHEM_TRADITIONAL_IUPAC>
(E)-[(5-nitrofuran-2-yl)methylidene]aminourea

>  <JCHEM_VEBER_RULE>
0

>  <DRUGBANK_ID>
DB00336

>  <DRUG_GROUPS>
approved

>  <GENERIC_NAME>
Nitrofural

>  <SYNONYMS>
Furacilin; Nitrofurazone

>  <BRANDS>
Furacin; Furaderm

$$$$
Omeprazole
 OpenBabel02121510022D

 24 26  0  0  1  0  0  0  0  0999 V2000
    6.5950    0.4970    0.0000 S   0  0  3  0  0  0  0  0  0  0  0  0
    9.4830   -1.6470    0.0000 O   0  0  0  0  0  0  0  0  0  0  0  0
    7.0080    1.2110    0.0000 O   0  0  0  0  0  0  0  0  0  0  0  0
    2.3640    1.3220    0.0000 O   0  0  0  0  0  0  0  0  0  0  0  0
    5.2890    1.1610    0.0000 N   0  0  0  0  0  0  0  0  0  0  0  0
    5.2890   -0.1670    0.0000 N   0  0  0  0  0  0  0  0  0  0  0  0
    8.2450    0.4970    0.0000 N   0  0  0  0  0  0  0  0  0  0  0  0
    7.0080   -0.2180    0.0000 C   0  0  0  0  0  0  0  0  0  0  0  0
    7.8330   -0.2180    0.0000 C   0  0  0  0  0  0  0  0  0  0  0  0
    8.2450   -0.9320    0.0000 C   0  0  0  0  0  0  0  0  0  0  0  0
    5.7700    0.4970    0.0000 C   0  0  0  0  0  0  0  0  0  0  0  0
    4.5080    0.9090    0.0000 C   0  0  0  0  0  0  0  0  0  0  0  0
    9.0700   -0.9320    0.0000 C   0  0  0  0  0  0  0  0  0  0  0  0
    4.5080    0.0840    0.0000 C   0  0  0  0  0  0  0  0  0  0  0  0
    9.4830   -0.2180    0.0000 C   0  0  0  0  0  0  0  0  0  0  0  0
    7.8330   -1.6470    0.0000 C   0  0  0  0  0  0  0  0  0  0  0  0
    3.7940    1.3220    0.0000 C   0  0  0  0  0  0  0  0  0  0  0  0
    9.0700    0.4970    0.0000 C   0  0  0  0  0  0  0  0  0  0  0  0
    3.7940   -0.3280    0.0000 C   0  0  0  0  0  0  0  0  0  0  0  0
    3.0790    0.9090    0.0000 C   0  0  0  0  0  0  0  0  0  0  0  0
    3.0790    0.0840    0.0000 C   0  0  0  0  0  0  0  0  0  0  0  0
   10.3080   -0.2180    0.0000 C   0  0  0  0  0  0  0  0  0  0  0  0
   10.3080   -1.6470    0.0000 C   0  0  0  0  0  0  0  0  0  0  0  0
    1.6500    0.9090    0.0000 C   0  0  0  0  0  0  0  0  0  0  0  0
  1  3  2  0  0  0  0
  1  8  1  0  0  0  0
  1 11  1  0  0  0  0
  2 13  1  0  0  0  0
  2 23  1  0  0  0  0
  4 20  1  0  0  0  0
  4 24  1  0  0  0  0
  5 11  1  0  0  0  0
  5 12  1  0  0  0  0
  6 11  2  0  0  0  0
  6 14  1  0  0  0  0
  7  9  1  0  0  0  0
  7 18  2  0  0  0  0
  8  9  1  0  0  0  0
  9 10  2  0  0  0  0
 10 13  1  0  0  0  0
 10 16  1  0  0  0  0
 12 14  2  0  0  0  0
 12 17  1  0  0  0  0
 13 15  2  0  0  0  0
 14 19  1  0  0  0  0
 15 18  1  0  0  0  0
 15 22  1  0  0  0  0
 17 20  2  0  0  0  0
 19 21  2  0  0  0  0
 20 21  1  0  0  0  0
M  END
>  <DATABASE_ID>
DB00338

>  <DATABASE_NAME>
drugbank

>  <SMILES>
S(=O)(Cc1ncc(C)c(OC)c1C)c1[nH]c2cc(OC)ccc2n1

>  <INCHI_IDENTIFIER>
InChI=1S/C17H19N3O3S/c1-10-8-18-15(11(2)16(10)23-4)9-24(21)17-19-13-6-5-12(22-3)7-14(13)20-17/h5-8H,9H2,1-4H3,(H,19,20)

>  <INCHI_KEY>
InChIKey=SUBDBMMJDZJVOS-UHFFFAOYSA-N

>  <JCHEM_ACCEPTOR_COUNT>
5

>  <JCHEM_AVERAGE_POLARIZABILITY>
37.454521

>  <JCHEM_BIOAVAILABILITY>
1

>  <JCHEM_DONOR_COUNT>
1

>  <JCHEM_EXACT_MASS>
345.11472

>  <JCHEM_FORMAL_CHARGE>
0

>  <JCHEM_FORMULA>
C17H19N3O3S

>  <JCHEM_GHOSE_FILTER>
1

>  <JCHEM_IUPAC>
6-methoxy-2-{[(4-methoxy-3,5-dimethylpyridin-2-yl)methane]sulfinyl}-1H-1,3-benzodiazole

>  <ALOGPS_LOGP>
1.66

>  <JCHEM_LOGP>
2.4335091

>  <ALOGPS_LOGS>
-2.98

>  <JCHEM_MASS>
345.41599

>  <JCHEM_MDDR_LIKE_RULE>
0

>  <JCHEM_NUMBER_OF_RINGS>
3

>  <JCHEM_PHYSIOLOGICAL_CHARGE>
0

>  <JCHEM_PKA>
18.286999

>  <JCHEM_PKA_STRONGEST_ACIDIC>
9.294158

>  <JCHEM_PKA_STRONGEST_BASIC>
4.7727613

>  <JCHEM_POLAR_SURFACE_AREA>
77.099998

>  <JCHEM_REFRACTIVITY>
93.6623

>  <JCHEM_ROTATABLE_BOND_COUNT>
5

>  <JCHEM_RULE_OF_FIVE>
1

>  <ALOGPS_SOLUBILITY>
3.59e-01 g/l

>  <JCHEM_TRADITIONAL_IUPAC>
5-methoxy-2-[(4-methoxy-3,5-dimethylpyridin-2-yl)methanesulfinyl]-3H-1,3-benzodiazole

>  <JCHEM_VEBER_RULE>
0

>  <DRUGBANK_ID>
DB00338

>  <DRUG_GROUPS>
approved; investigational

>  <GENERIC_NAME>
Omeprazole

>  <SYNONYMS>
OMEP; OMP; OMZ

>  <BRANDS>
Antra; Audazol; Belmazol; Ceprandal; Danlox; Desec; Elgam; Emeproton; Gasec; Gastrimut; Gastroloc; Indurgan; Inhibitron; Logastric; Losec; Mepral; Mopral; Olexin; Omapren; Omepral; Omeprazon; Omeprol; Omezol; Omisec; Omizac; Ortanol; Parizac; Prazidec; Prazolit; Prilosec; Procelac; Ramezol; Regulacid; Sanamidol; Ulceral; Ulcesep; Ultop; Zegerid; Zepral

>  <SALTS>
Omeprazole magnesium ; Omeprazole sodium

$$$$
Pyrazinamide
 OpenBabel02121510022D

  9  9  0  0  0  0  0  0  0  0999 V2000
    2.8080   -1.2380    0.0000 O   0  0  0  0  0  0  0  0  0  0  0  0
    4.2360   -0.4120    0.0000 N   0  0  0  0  0  0  0  0  0  0  0  0
    4.2360    1.2380    0.0000 N   0  0  0  0  0  0  0  0  0  0  0  0
    2.0930    0.0000    0.0000 N   0  0  0  0  0  0  0  0  0  0  0  0
    3.5220    0.0000    0.0000 C   0  0  0  0  0  0  0  0  0  0  0  0
    3.5220    0.8250    0.0000 C   0  0  0  0  0  0  0  0  0  0  0  0
    2.8080   -0.4120    0.0000 C   0  0  0  0  0  0  0  0  0  0  0  0
    4.9510    0.0000    0.0000 C   0  0  0  0  0  0  0  0  0  0  0  0
    4.9510    0.8250    0.0000 C   0  0  0  0  0  0  0  0  0  0  0  0
  1  7  2  0  0  0  0
  2  5  2  0  0  0  0
  2  8  1  0  0  0  0
  3  6  2  0  0  0  0
  3  9  1  0  0  0  0
  4  7  1  0  0  0  0
  5  6  1  0  0  0  0
  5  7  1  0  0  0  0
  8  9  2  0  0  0  0
M  END
>  <DATABASE_ID>
DB00339

>  <DATABASE_NAME>
drugbank

>  <SMILES>
O=C(N)c1nccnc1

>  <INCHI_IDENTIFIER>
InChI=1S/C5H5N3O/c6-5(9)4-3-7-1-2-8-4/h1-3H,(H2,6,9)

>  <INCHI_KEY>
InChIKey=IPEHBUMCGVEMRF-UHFFFAOYSA-N

>  <JCHEM_ACCEPTOR_COUNT>
3

>  <JCHEM_AVERAGE_POLARIZABILITY>
11.129502

>  <JCHEM_BIOAVAILABILITY>
1

>  <JCHEM_DONOR_COUNT>
1

>  <JCHEM_EXACT_MASS>
123.04326

>  <JCHEM_FORMAL_CHARGE>
0

>  <JCHEM_FORMULA>
C5H5N3O

>  <JCHEM_GHOSE_FILTER>
0

>  <JCHEM_IUPAC>
pyrazine-2-carboxamide

>  <ALOGPS_LOGP>
-0.70999998

>  <JCHEM_LOGP>
-1.2256085

>  <ALOGPS_LOGS>
-0.12

>  <JCHEM_MASS>
123.1127

>  <JCHEM_MDDR_LIKE_RULE>
0

>  <JCHEM_NUMBER_OF_RINGS>
1

>  <JCHEM_PHYSIOLOGICAL_CHARGE>
0

>  <JCHEM_PKA_STRONGEST_ACIDIC>
13.059009

>  <JCHEM_PKA_STRONGEST_BASIC>
-0.67644161

>  <JCHEM_POLAR_SURFACE_AREA>
68.870003

>  <JCHEM_REFRACTIVITY>
30.4506

>  <JCHEM_ROTATABLE_BOND_COUNT>
1

>  <JCHEM_RULE_OF_FIVE>
1

>  <ALOGPS_SOLUBILITY>
9.37e+01 g/l

>  <JCHEM_TRADITIONAL_IUPAC>
pyrazinamide

>  <JCHEM_VEBER_RULE>
0

>  <DRUGBANK_ID>
DB00339

>  <DRUG_GROUPS>
approved

>  <GENERIC_NAME>
Pyrazinamide

>  <SYNONYMS>
2-carbamylpyrazine; 2-pyrazinecarboxamide; Aldinamide; Pirazinamida; Pirazinamide; Pyrazinamid; Pyrazinamide; Pyrazinamidum; Pyrazine carboxamide; pyrazine-2-carboxamide; Pyrazineamide; Pyrazinecarboxamide; Pyrazinoic acid amide; Pyrizinamide

>  <BRANDS>
Piraldina; Prazina; Pyrafat; Pyrazide; Tebrazid; Tisamid

$$$$
Cetirizine
 OpenBabel02121510022D

 27 29  0  0  1  0  0  0  0  0999 V2000
    1.6500   -4.1750    0.0000 Cl  0  0  0  0  0  0  0  0  0  0  0  0
    5.2220    2.0130    0.0000 O   0  0  0  0  0  0  0  0  0  0  0  0
    6.6520    3.6630    0.0000 O   0  0  0  0  0  0  0  0  0  0  0  0
    5.2220    3.6630    0.0000 O   0  0  0  0  0  0  0  0  0  0  0  0
    4.5080   -1.7000    0.0000 N   0  0  0  0  0  0  0  0  0  0  0  0
    4.5080   -0.0500    0.0000 N   0  0  0  0  0  0  0  0  0  0  0  0
    5.2220   -1.2870    0.0000 C   0  0  0  0  0  0  0  0  0  0  0  0
    3.7940   -1.2870    0.0000 C   0  0  0  0  0  0  0  0  0  0  0  0
    5.2220   -0.4620    0.0000 C   0  0  0  0  0  0  0  0  0  0  0  0
    3.7940   -0.4620    0.0000 C   0  0  0  0  0  0  0  0  0  0  0  0
    4.5080   -2.5250    0.0000 C   0  0  3  0  0  0  0  0  0  0  0  0
    4.5080    0.7760    0.0000 C   0  0  0  0  0  0  0  0  0  0  0  0
    3.7940   -2.9370    0.0000 C   0  0  0  0  0  0  0  0  0  0  0  0
    5.2220   -2.9370    0.0000 C   0  0  0  0  0  0  0  0  0  0  0  0
    5.2220    1.1880    0.0000 C   0  0  0  0  0  0  0  0  0  0  0  0
    3.7940   -3.7620    0.0000 C   0  0  0  0  0  0  0  0  0  0  0  0
    3.0790   -2.5250    0.0000 C   0  0  0  0  0  0  0  0  0  0  0  0
    5.9370   -2.5250    0.0000 C   0  0  0  0  0  0  0  0  0  0  0  0
    5.2220   -3.7620    0.0000 C   0  0  0  0  0  0  0  0  0  0  0  0
    3.0790   -4.1750    0.0000 C   0  0  0  0  0  0  0  0  0  0  0  0
    2.3640   -2.9370    0.0000 C   0  0  0  0  0  0  0  0  0  0  0  0
    6.6520   -2.9370    0.0000 C   0  0  0  0  0  0  0  0  0  0  0  0
    5.9370   -4.1750    0.0000 C   0  0  0  0  0  0  0  0  0  0  0  0
    2.3640   -3.7620    0.0000 C   0  0  0  0  0  0  0  0  0  0  0  0
    6.6520   -3.7620    0.0000 C   0  0  0  0  0  0  0  0  0  0  0  0
    5.9370    2.4260    0.0000 C   0  0  0  0  0  0  0  0  0  0  0  0
    5.9370    3.2510    0.0000 C   0  0  0  0  0  0  0  0  0  0  0  0
  1 24  1  0  0  0  0
  2 15  1  0  0  0  0
  2 26  1  0  0  0  0
  3 27  1  0  0  0  0
  4 27  2  0  0  0  0
  5  7  1  0  0  0  0
  5  8  1  0  0  0  0
  5 11  1  0  0  0  0
  6  9  1  0  0  0  0
  6 10  1  0  0  0  0
  6 12  1  0  0  0  0
  7  9  1  0  0  0  0
  8 10  1  0  0  0  0
 11 13  1  0  0  0  0
 11 14  1  0  0  0  0
 12 15  1  0  0  0  0
 13 16  2  0  0  0  0
 13 17  1  0  0  0  0
 14 18  2  0  0  0  0
 14 19  1  0  0  0  0
 16 20  1  0  0  0  0
 17 21  2  0  0  0  0
 18 22  1  0  0  0  0
 19 23  2  0  0  0  0
 20 24  2  0  0  0  0
 21 24  1  0  0  0  0
 22 25  2  0  0  0  0
 23 25  1  0  0  0  0
 26 27  1  0  0  0  0
M  END
>  <DATABASE_ID>
DB00341

>  <DATABASE_NAME>
drugbank

>  <SMILES>
Clc1ccc(cc1)C(N1CCN(CC1)CCOCC(O)=O)c1ccccc1

>  <INCHI_IDENTIFIER>
InChI=1S/C21H25ClN2O3/c22-19-8-6-18(7-9-19)21(17-4-2-1-3-5-17)24-12-10-23(11-13-24)14-15-27-16-20(25)26/h1-9,21H,10-16H2,(H,25,26)

>  <INCHI_KEY>
InChIKey=ZKLPARSLTMPFCP-UHFFFAOYSA-N

>  <JCHEM_ACCEPTOR_COUNT>
5

>  <JCHEM_AVERAGE_POLARIZABILITY>
41.878151

>  <JCHEM_BIOAVAILABILITY>
1

>  <JCHEM_DONOR_COUNT>
1

>  <JCHEM_EXACT_MASS>
388.15536

>  <JCHEM_FORMAL_CHARGE>
0

>  <JCHEM_FORMULA>
C21H25ClN2O3

>  <JCHEM_GHOSE_FILTER>
1

>  <JCHEM_IUPAC>
2-(2-{4-[(4-chlorophenyl)(phenyl)methyl]piperazin-1-yl}ethoxy)acetic acid

>  <ALOGPS_LOGP>
2.98

>  <JCHEM_LOGP>
0.85980928

>  <ALOGPS_LOGS>
-3.77

>  <JCHEM_MASS>
388.888

>  <JCHEM_MDDR_LIKE_RULE>
1

>  <JCHEM_NUMBER_OF_RINGS>
3

>  <JCHEM_PHYSIOLOGICAL_CHARGE>
0

>  <JCHEM_PKA_STRONGEST_ACIDIC>
3.5966311

>  <JCHEM_PKA_STRONGEST_BASIC>
7.7891722

>  <JCHEM_POLAR_SURFACE_AREA>
53.009998

>  <JCHEM_REFRACTIVITY>
106.8665

>  <JCHEM_ROTATABLE_BOND_COUNT>
8

>  <JCHEM_RULE_OF_FIVE>
1

>  <ALOGPS_SOLUBILITY>
6.58e-02 g/l

>  <JCHEM_TRADITIONAL_IUPAC>
cetirizine

>  <JCHEM_VEBER_RULE>
0

>  <DRUGBANK_ID>
DB00341

>  <DRUG_GROUPS>
approved

>  <GENERIC_NAME>
Cetirizine

>  <SYNONYMS>
Cetirizin; Cetirizina; Cetirizinum

>  <BRANDS>
Alerlisin; Cetryn; Formistin; Hitrizin; Reactine; Virlix; Zirtek; Zyrlex; Zyrtec

$$$$
Diltiazem
 OpenBabel02121510022D

 29 31  0  0  1  0  0  0  0  0999 V2000
    3.3900   -0.5860    0.0000 S   0  0  0  0  0  0  0  0  0  0  0  0
    5.0880    0.8020    0.0000 O   0  0  0  0  0  0  0  0  0  0  0  0
    6.0480   -0.4020    0.0000 O   0  0  0  0  0  0  0  0  0  0  0  0
    2.4730    3.0320    0.0000 O   0  0  0  0  0  0  0  0  0  0  0  0
    6.3750    0.1820    0.0000 O   0  0  0  0  0  0  0  0  0  0  0  0
    5.0600   -1.3900    0.0000 N   0  0  0  0  0  0  0  0  0  0  0  0
    7.1180   -2.1180    0.0000 N   0  0  0  0  0  0  0  0  0  0  0  0
    3.9040    0.0590    0.0000 C   0  0  2  0  0  0  0  0  0  0  0  0
    4.7300    0.0590    0.0000 C   0  0  2  0  0  0  0  0  0  0  0  0
    5.2440   -0.5860    0.0000 C   0  0  0  0  0  0  0  0  0  0  0  0
    5.7050   -1.9050    0.0000 C   0  0  0  0  0  0  0  0  0  0  0  0
    4.3170   -1.7480    0.0000 C   0  0  0  0  0  0  0  0  0  0  0  0
    3.5470    0.8020    0.0000 C   0  0  0  0  0  0  0  0  0  0  0  0
    3.5740   -1.3900    0.0000 C   0  0  0  0  0  0  0  0  0  0  0  0
    6.4730   -1.6030    0.0000 C   0  0  0  0  0  0  0  0  0  0  0  0
    4.3940   -2.6040    0.0000 C   0  0  0  0  0  0  0  0  0  0  0  0
    2.8560   -1.8640    0.0000 C   0  0  0  0  0  0  0  0  0  0  0  0
    2.7240    0.8640    0.0000 C   0  0  0  0  0  0  0  0  0  0  0  0
    4.0110    1.4840    0.0000 C   0  0  0  0  0  0  0  0  0  0  0  0
    3.6880   -3.0940    0.0000 C   0  0  0  0  0  0  0  0  0  0  0  0
    2.9140   -2.7210    0.0000 C   0  0  0  0  0  0  0  0  0  0  0  0
    2.3660    1.6070    0.0000 C   0  0  0  0  0  0  0  0  0  0  0  0
    3.6530    2.2270    0.0000 C   0  0  0  0  0  0  0  0  0  0  0  0
    7.8860   -1.8160    0.0000 C   0  0  0  0  0  0  0  0  0  0  0  0
    6.9950   -2.9340    0.0000 C   0  0  0  0  0  0  0  0  0  0  0  0
    2.8310    2.2890    0.0000 C   0  0  0  0  0  0  0  0  0  0  0  0
    5.9100    0.8640    0.0000 C   0  0  0  0  0  0  0  0  0  0  0  0
    6.2680    1.6070    0.0000 C   0  0  0  0  0  0  0  0  0  0  0  0
    1.6500    3.0940    0.0000 C   0  0  0  0  0  0  0  0  0  0  0  0
  1  8  1  0  0  0  0
  1 14  1  0  0  0  0
  2 27  1  0  0  0  0
  3 10  2  0  0  0  0
  4 26  1  0  0  0  0
  4 29  1  0  0  0  0
  5 27  2  0  0  0  0
  6 10  1  0  0  0  0
  6 11  1  0  0  0  0
  6 12  1  0  0  0  0
  7 15  1  0  0  0  0
  7 24  1  0  0  0  0
  7 25  1  0  0  0  0
  8  9  1  0  0  0  0
  8 13  1  1  0  0  0
  9  2  1  1  0  0  0
  9 10  1  0  0  0  0
 11 15  1  0  0  0  0
 12 14  1  0  0  0  0
 12 16  2  0  0  0  0
 13 18  1  0  0  0  0
 13 19  2  0  0  0  0
 14 17  2  0  0  0  0
 16 20  1  0  0  0  0
 17 21  1  0  0  0  0
 18 22  2  0  0  0  0
 19 23  1  0  0  0  0
 20 21  2  0  0  0  0
 22 26  1  0  0  0  0
 23 26  2  0  0  0  0
 27 28  1  0  0  0  0
M  END
>  <DATABASE_ID>
DB00343

>  <DATABASE_NAME>
drugbank

>  <SMILES>
S1c2c(N(CCN(C)C)C(=O)[C@H](OC(=O)C)[C@@H]1c1ccc(OC)cc1)cccc2

>  <INCHI_IDENTIFIER>
InChI=1S/C22H26N2O4S/c1-15(25)28-20-21(16-9-11-17(27-4)12-10-16)29-19-8-6-5-7-18(19)24(22(20)26)14-13-23(2)3/h5-12,20-21H,13-14H2,1-4H3/t20-,21+/m1/s1

>  <INCHI_KEY>
InChIKey=HSUGRBWQSSZJOP-RTWAWAEBSA-N

>  <JCHEM_ACCEPTOR_COUNT>
4

>  <JCHEM_AVERAGE_POLARIZABILITY>
43.645702

>  <JCHEM_BIOAVAILABILITY>
1

>  <JCHEM_DONOR_COUNT>
0

>  <JCHEM_EXACT_MASS>
414.16132

>  <JCHEM_FORMAL_CHARGE>
0

>  <JCHEM_FORMULA>
C22H26N2O4S

>  <JCHEM_GHOSE_FILTER>
1

>  <JCHEM_IUPAC>
(2S,3S)-5-[2-(dimethylamino)ethyl]-2-(4-methoxyphenyl)-4-oxo-2,3,4,5-tetrahydro-1,5-benzothiazepin-3-yl acetate

>  <ALOGPS_LOGP>
3.0899999

>  <JCHEM_LOGP>
2.7272518

>  <ALOGPS_LOGS>
-4.3899999

>  <JCHEM_MASS>
414.51801

>  <JCHEM_MDDR_LIKE_RULE>
1

>  <JCHEM_NUMBER_OF_RINGS>
3

>  <JCHEM_PHYSIOLOGICAL_CHARGE>
1

>  <JCHEM_PKA_STRONGEST_ACIDIC>
12.860752

>  <JCHEM_PKA_STRONGEST_BASIC>
8.1752806

>  <JCHEM_POLAR_SURFACE_AREA>
59.080002

>  <JCHEM_REFRACTIVITY>
114.3663

>  <JCHEM_ROTATABLE_BOND_COUNT>
7

>  <JCHEM_RULE_OF_FIVE>
1

>  <ALOGPS_SOLUBILITY>
1.68e-02 g/l

>  <JCHEM_TRADITIONAL_IUPAC>
diltiazem

>  <JCHEM_VEBER_RULE>
0

>  <DRUGBANK_ID>
DB00343

>  <DRUG_GROUPS>
approved

>  <GENERIC_NAME>
Diltiazem

>  <BRANDS>
Acalix; Adizem; Altiazem; Anoheal; Calcicard; Cardizem; Cartia; Cartia XT; Dilacor; Dilacor-XR; Dilcontin; Dilrene; DILT-CD; Diltia XT; Dilticard; DILTZAC; Dilzem; Herbesser; Incoril AP; Masdil; Surazem; TAZTIA; Tiazac; Viazem

>  <SALTS>
Diltiazem hydrochloride

$$$$
Protriptyline
 OpenBabel02121510022D

 20 22  0  0  0  0  0  0  0  0999 V2000
    2.5990   -1.7280    0.0000 N   0  0  0  0  0  0  0  0  0  0  0  0
    4.0280    0.7460    0.0000 C   0  0  3  0  0  0  0  0  0  0  0  0
    4.0280   -0.0790    0.0000 C   0  0  0  0  0  0  0  0  0  0  0  0
    4.7710    1.1040    0.0000 C   0  0  0  0  0  0  0  0  0  0  0  0
    3.2840    1.1040    0.0000 C   0  0  0  0  0  0  0  0  0  0  0  0
    3.3130   -0.4910    0.0000 C   0  0  0  0  0  0  0  0  0  0  0  0
    4.9540    1.9080    0.0000 C   0  0  0  0  0  0  0  0  0  0  0  0
    3.1010    1.9080    0.0000 C   0  0  0  0  0  0  0  0  0  0  0  0
    3.3130   -1.3160    0.0000 C   0  0  0  0  0  0  0  0  0  0  0  0
    5.3910    0.5100    0.0000 C   0  0  0  0  0  0  0  0  0  0  0  0
    2.6640    0.5100    0.0000 C   0  0  0  0  0  0  0  0  0  0  0  0
    4.4400    2.5530    0.0000 C   0  0  0  0  0  0  0  0  0  0  0  0
    3.6150    2.5530    0.0000 C   0  0  0  0  0  0  0  0  0  0  0  0
    5.7710    2.1740    0.0000 C   0  0  0  0  0  0  0  0  0  0  0  0
    2.2840    2.1740    0.0000 C   0  0  0  0  0  0  0  0  0  0  0  0
    6.2140    0.7570    0.0000 C   0  0  0  0  0  0  0  0  0  0  0  0
    1.8410    0.7570    0.0000 C   0  0  0  0  0  0  0  0  0  0  0  0
    6.4050    1.5950    0.0000 C   0  0  0  0  0  0  0  0  0  0  0  0
    1.6500    1.5950    0.0000 C   0  0  0  0  0  0  0  0  0  0  0  0
    2.5990   -2.5530    0.0000 C   0  0  0  0  0  0  0  0  0  0  0  0
  1  9  1  0  0  0  0
  1 20  1  0  0  0  0
  2  3  1  0  0  0  0
  2  4  1  0  0  0  0
  2  5  1  0  0  0  0
  3  6  1  0  0  0  0
  4  7  2  0  0  0  0
  4 10  1  0  0  0  0
  5  8  2  0  0  0  0
  5 11  1  0  0  0  0
  6  9  1  0  0  0  0
  7 12  1  0  0  0  0
  7 14  1  0  0  0  0
  8 13  1  0  0  0  0
  8 15  1  0  0  0  0
 10 16  2  0  0  0  0
 11 17  2  0  0  0  0
 12 13  2  0  0  0  0
 14 18  2  0  0  0  0
 15 19  2  0  0  0  0
 16 18  1  0  0  0  0
 17 19  1  0  0  0  0
M  END
>  <DATABASE_ID>
DB00344

>  <DATABASE_NAME>
drugbank

>  <SMILES>
N(CCCC1c2c(C=Cc3c1cccc3)cccc2)C

>  <INCHI_IDENTIFIER>
InChI=1S/C19H21N/c1-20-14-6-11-19-17-9-4-2-7-15(17)12-13-16-8-3-5-10-18(16)19/h2-5,7-10,12-13,19-20H,6,11,14H2,1H3

>  <INCHI_KEY>
InChIKey=BWPIARFWQZKAIA-UHFFFAOYSA-N

>  <JCHEM_ACCEPTOR_COUNT>
1

>  <JCHEM_AVERAGE_POLARIZABILITY>
31.604412

>  <JCHEM_BIOAVAILABILITY>
1

>  <JCHEM_DONOR_COUNT>
1

>  <JCHEM_EXACT_MASS>
263.16739

>  <JCHEM_FORMAL_CHARGE>
0

>  <JCHEM_FORMULA>
C19H21N

>  <JCHEM_GHOSE_FILTER>
1

>  <JCHEM_IUPAC>
methyl(3-{tricyclo[9.4.0.0^{3,8}]pentadeca-1(11),3(8),4,6,9,12,14-heptaen-2-yl}propyl)amine

>  <ALOGPS_LOGP>
4.6500001

>  <JCHEM_LOGP>
4.4968114

>  <ALOGPS_LOGS>
-6.0599999

>  <JCHEM_MASS>
263.37671

>  <JCHEM_MDDR_LIKE_RULE>
0

>  <JCHEM_NUMBER_OF_RINGS>
3

>  <JCHEM_PHYSIOLOGICAL_CHARGE>
1

>  <JCHEM_PKA_STRONGEST_BASIC>
10.54323

>  <JCHEM_POLAR_SURFACE_AREA>
12.03

>  <JCHEM_REFRACTIVITY>
87.303398

>  <JCHEM_ROTATABLE_BOND_COUNT>
4

>  <JCHEM_RULE_OF_FIVE>
1

>  <ALOGPS_SOLUBILITY>
2.31e-04 g/l

>  <JCHEM_TRADITIONAL_IUPAC>
protriptyline

>  <JCHEM_VEBER_RULE>
1

>  <DRUGBANK_ID>
DB00344

>  <DRUG_GROUPS>
approved

>  <GENERIC_NAME>
Protriptyline

>  <SYNONYMS>
3-(5H-dibenzo[a,d][7]annulen-5-yl)-N-methylpropan-1-amine; Protriptilina; Protriptylin; Protriptyline; Protriptylinum

>  <BRANDS>
Protriptyline Hydrochloride; Triptil; Vivactil

$$$$
Alfuzosin
 OpenBabel02121510022D

 28 30  0  0  1  0  0  0  0  0999 V2000
    2.2020    0.5340    0.0000 O   0  0  0  0  0  0  0  0  0  0  0  0
    3.6700   -0.3680    0.0000 O   0  0  0  0  0  0  0  0  0  0  0  0
   11.5840   -0.8010    0.0000 O   0  0  0  0  0  0  0  0  0  0  0  0
   11.5840    0.8890    0.0000 O   0  0  0  0  0  0  0  0  0  0  0  0
    4.3850    0.8690    0.0000 N   0  0  0  0  0  0  0  0  0  0  0  0
    7.2430    0.8690    0.0000 N   0  0  0  0  0  0  0  0  0  0  0  0
    8.6720    0.8690    0.0000 N   0  0  0  0  0  0  0  0  0  0  0  0
    7.9570   -0.3680    0.0000 N   0  0  0  0  0  0  0  0  0  0  0  0
    8.6720   -1.6060    0.0000 N   0  0  0  0  0  0  0  0  0  0  0  0
    2.9560    0.8690    0.0000 C   0  0  3  0  0  0  0  0  0  0  0  0
    2.8700    1.6900    0.0000 C   0  0  0  0  0  0  0  0  0  0  0  0
    2.0620    1.8610    0.0000 C   0  0  0  0  0  0  0  0  0  0  0  0
    1.6500    1.1470    0.0000 C   0  0  0  0  0  0  0  0  0  0  0  0
    3.6700    0.4570    0.0000 C   0  0  0  0  0  0  0  0  0  0  0  0
    5.0990    0.4570    0.0000 C   0  0  0  0  0  0  0  0  0  0  0  0
    5.8140    0.8690    0.0000 C   0  0  0  0  0  0  0  0  0  0  0  0
    6.5280    0.4570    0.0000 C   0  0  0  0  0  0  0  0  0  0  0  0
    7.9570    0.4570    0.0000 C   0  0  0  0  0  0  0  0  0  0  0  0
    7.2430    1.6940    0.0000 C   0  0  0  0  0  0  0  0  0  0  0  0
    9.3860   -0.3680    0.0000 C   0  0  0  0  0  0  0  0  0  0  0  0
    9.3860    0.4570    0.0000 C   0  0  0  0  0  0  0  0  0  0  0  0
    8.6720   -0.7810    0.0000 C   0  0  0  0  0  0  0  0  0  0  0  0
   10.1240   -0.8090    0.0000 C   0  0  0  0  0  0  0  0  0  0  0  0
   10.1240    0.8980    0.0000 C   0  0  0  0  0  0  0  0  0  0  0  0
   10.8710   -0.3850    0.0000 C   0  0  0  0  0  0  0  0  0  0  0  0
   10.8710    0.4740    0.0000 C   0  0  0  0  0  0  0  0  0  0  0  0
   11.5810   -1.6260    0.0000 C   0  0  0  0  0  0  0  0  0  0  0  0
   11.5810    1.7140    0.0000 C   0  0  0  0  0  0  0  0  0  0  0  0
  1 10  1  0  0  0  0
  1 13  1  0  0  0  0
  2 14  2  0  0  0  0
  3 25  1  0  0  0  0
  3 27  1  0  0  0  0
  4 26  1  0  0  0  0
  4 28  1  0  0  0  0
  5 14  1  0  0  0  0
  5 15  1  0  0  0  0
  6 17  1  0  0  0  0
  6 18  1  0  0  0  0
  6 19  1  0  0  0  0
  7 18  2  0  0  0  0
  7 21  1  0  0  0  0
  8 18  1  0  0  0  0
  8 22  2  0  0  0  0
  9 22  1  0  0  0  0
 10 11  1  0  0  0  0
 10 14  1  0  0  0  0
 11 12  1  0  0  0  0
 12 13  1  0  0  0  0
 15 16  1  0  0  0  0
 16 17  1  0  0  0  0
 20 21  2  0  0  0  0
 20 22  1  0  0  0  0
 20 23  1  0  0  0  0
 21 24  1  0  0  0  0
 23 25  2  0  0  0  0
 24 26  2  0  0  0  0
 25 26  1  0  0  0  0
M  END
>  <DATABASE_ID>
DB00346

>  <DATABASE_NAME>
drugbank

>  <SMILES>
O1CCCC1C(=O)NCCCN(C)c1nc(N)c2cc(OC)c(OC)cc2n1

>  <INCHI_IDENTIFIER>
InChI=1S/C19H27N5O4/c1-24(8-5-7-21-18(25)14-6-4-9-28-14)19-22-13-11-16(27-3)15(26-2)10-12(13)17(20)23-19/h10-11,14H,4-9H2,1-3H3,(H,21,25)(H2,20,22,23)

>  <INCHI_KEY>
InChIKey=WNMJYKCGWZFFKR-UHFFFAOYSA-N

>  <JCHEM_ACCEPTOR_COUNT>
8

>  <JCHEM_AVERAGE_POLARIZABILITY>
42.708839

>  <JCHEM_BIOAVAILABILITY>
1

>  <JCHEM_DONOR_COUNT>
2

>  <JCHEM_EXACT_MASS>
389.2063

>  <JCHEM_FORMAL_CHARGE>
0

>  <JCHEM_FORMULA>
C19H27N5O4

>  <JCHEM_GHOSE_FILTER>
1

>  <JCHEM_IUPAC>
N-{3-[(4-amino-6,7-dimethoxyquinazolin-2-yl)(methyl)amino]propyl}oxolane-2-carboxamide

>  <ALOGPS_LOGP>
2.02

>  <JCHEM_LOGP>
1.1875362

>  <ALOGPS_LOGS>
-3.1400001

>  <JCHEM_MASS>
389.44879

>  <JCHEM_MDDR_LIKE_RULE>
1

>  <JCHEM_NUMBER_OF_RINGS>
3

>  <JCHEM_PHYSIOLOGICAL_CHARGE>
1

>  <JCHEM_PKA_STRONGEST_ACIDIC>
14.639695

>  <JCHEM_PKA_STRONGEST_BASIC>
7.3033795

>  <JCHEM_POLAR_SURFACE_AREA>
111.83

>  <JCHEM_REFRACTIVITY>
107.1141

>  <JCHEM_ROTATABLE_BOND_COUNT>
8

>  <JCHEM_RULE_OF_FIVE>
1

>  <ALOGPS_SOLUBILITY>
2.82e-01 g/l

>  <JCHEM_TRADITIONAL_IUPAC>
alfuzosin

>  <JCHEM_VEBER_RULE>
0

>  <DRUGBANK_ID>
DB00346

>  <DRUG_GROUPS>
approved; investigational

>  <GENERIC_NAME>
Alfuzosin

>  <SYNONYMS>
(±)-N-[3-[(4-amino-6,7-dimethoxy-2-quinazolinyl)methylamino]propyl]tetrahydro-2-furamide ; Alfuzosin; Alfuzosina; Alfuzosine; Alfuzosinum; N-[3-[(4-amino-6,7-dimethoxy-quinazolin-2-yl)- methyl-amino]propyl] tetrahydrofuran- 2-carboxamide

>  <BRANDS>
Alcinin; Alfasin XR; Alfetim; Alfoo; Alfu; Alfuran; Alfusozina; Flotral; Fual; Profuzo; Rantral; Uriten; Uroxatral; Xantral; Xatral; Xelflo; Zatral

>  <SALTS>
Alfuzosin Hydrochloride

$$$$
Nitisinone
 OpenBabel02121510022D

 23 24  0  0  0  0  0  0  0  0999 V2000
    3.7940   -2.8880    0.0000 F   0  0  0  0  0  0  0  0  0  0  0  0
    4.6180   -2.0620    0.0000 F   0  0  0  0  0  0  0  0  0  0  0  0
    2.9680   -2.0620    0.0000 F   0  0  0  0  0  0  0  0  0  0  0  0
    5.2220    0.4120    0.0000 O   0  0  0  0  0  0  0  0  0  0  0  0
    3.7940    2.8880    0.0000 O   0  0  0  0  0  0  0  0  0  0  0  0
    3.0790    1.6500    0.0000 O   0  0  0  0  0  0  0  0  0  0  0  0
    1.6500    0.0000    0.0000 O   0  5  0  0  0  0  0  0  0  0  0  0
    2.3640    1.2380    0.0000 O   0  0  0  0  0  0  0  0  0  0  0  0
    2.3640    0.4120    0.0000 N   0  3  0  0  0  0  0  0  0  0  0  0
    4.5080    1.6500    0.0000 C   0  0  0  0  0  0  0  0  0  0  0  0
    5.9370    2.4750    0.0000 C   0  0  0  0  0  0  0  0  0  0  0  0
    5.9370    1.6500    0.0000 C   0  0  0  0  0  0  0  0  0  0  0  0
    5.2220    2.8880    0.0000 C   0  0  0  0  0  0  0  0  0  0  0  0
    5.2220    1.2380    0.0000 C   0  0  0  0  0  0  0  0  0  0  0  0
    4.5080    2.4750    0.0000 C   0  0  0  0  0  0  0  0  0  0  0  0
    3.7940    1.2380    0.0000 C   0  0  0  0  0  0  0  0  0  0  0  0
    3.7940    0.4120    0.0000 C   0  0  0  0  0  0  0  0  0  0  0  0
    3.0790    0.0000    0.0000 C   0  0  0  0  0  0  0  0  0  0  0  0
    4.5080    0.0000    0.0000 C   0  0  0  0  0  0  0  0  0  0  0  0
    3.7940   -1.2380    0.0000 C   0  0  0  0  0  0  0  0  0  0  0  0
    3.0790   -0.8250    0.0000 C   0  0  0  0  0  0  0  0  0  0  0  0
    4.5080   -0.8250    0.0000 C   0  0  0  0  0  0  0  0  0  0  0  0
    3.7940   -2.0620    0.0000 C   0  0  0  0  0  0  0  0  0  0  0  0
  1 23  1  0  0  0  0
  2 23  1  0  0  0  0
  3 23  1  0  0  0  0
  4 14  2  0  0  0  0
  5 15  2  0  0  0  0
  6 16  2  0  0  0  0
  7  9  1  0  0  0  0
  8  9  2  0  0  0  0
  9 18  1  0  0  0  0
 10 14  1  0  0  0  0
 10 15  1  0  0  0  0
 10 16  1  0  0  0  0
 11 12  1  0  0  0  0
 11 13  1  0  0  0  0
 12 14  1  0  0  0  0
 13 15  1  0  0  0  0
 16 17  1  0  0  0  0
 17 18  2  0  0  0  0
 17 19  1  0  0  0  0
 18 21  1  0  0  0  0
 19 22  2  0  0  0  0
 20 21  2  0  0  0  0
 20 22  1  0  0  0  0
 20 23  1  0  0  0  0
M  CHG  2   7  -1   9   1
M  END
>  <DATABASE_ID>
DB00348

>  <DATABASE_NAME>
drugbank

>  <SMILES>
FC(F)(F)c1cc([N+](=O)[O-])c(cc1)C(=O)C1C(=O)CCCC1=O

>  <INCHI_IDENTIFIER>
InChI=1S/C14H10F3NO5/c15-14(16,17)7-4-5-8(9(6-7)18(22)23)13(21)12-10(19)2-1-3-11(12)20/h4-6,12H,1-3H2

>  <INCHI_KEY>
InChIKey=OUBCNLGXQFSTLU-UHFFFAOYSA-N

>  <JCHEM_ACCEPTOR_COUNT>
5

>  <JCHEM_AVERAGE_POLARIZABILITY>
26.736164

>  <JCHEM_BIOAVAILABILITY>
1

>  <JCHEM_DONOR_COUNT>
0

>  <JCHEM_EXACT_MASS>
329.05112

>  <JCHEM_FORMAL_CHARGE>
0

>  <JCHEM_FORMULA>
C14H10F3NO5

>  <JCHEM_GHOSE_FILTER>
1

>  <JCHEM_IUPAC>
2-{[2-nitro-4-(trifluoromethyl)phenyl]carbonyl}cyclohexane-1,3-dione

>  <ALOGPS_LOGP>
2.0599999

>  <JCHEM_LOGP>
3.1276615

>  <ALOGPS_LOGS>
-4.6100001

>  <JCHEM_MASS>
329.22809

>  <JCHEM_MDDR_LIKE_RULE>
0

>  <JCHEM_NUMBER_OF_RINGS>
2

>  <JCHEM_PHYSIOLOGICAL_CHARGE>
-1

>  <JCHEM_PKA_STRONGEST_ACIDIC>
2.7114778

>  <JCHEM_PKA_STRONGEST_BASIC>
-7.3058524

>  <JCHEM_POLAR_SURFACE_AREA>
97.029999

>  <JCHEM_REFRACTIVITY>
72.347801

>  <JCHEM_ROTATABLE_BOND_COUNT>
4

>  <JCHEM_RULE_OF_FIVE>
1

>  <ALOGPS_SOLUBILITY>
8.11e-03 g/l

>  <JCHEM_TRADITIONAL_IUPAC>
nitisinone

>  <JCHEM_VEBER_RULE>
0

>  <DRUGBANK_ID>
DB00348

>  <DRUG_GROUPS>
approved; investigational

>  <GENERIC_NAME>
Nitisinone

>  <BRANDS>
Orfadin

$$$$
Clobazam
 OpenBabel02121510022D

 21 23  0  0  0  0  0  0  0  0999 V2000
    2.8170   -2.3590    0.0000 Cl  0  0  0  0  0  0  0  0  0  0  0  0
    5.1120    1.1540    0.0000 O   0  0  0  0  0  0  0  0  0  0  0  0
    2.6110    2.3590    0.0000 O   0  0  0  0  0  0  0  0  0  0  0  0
    4.1240    0.1670    0.0000 N   0  0  0  0  0  0  0  0  0  0  0  0
    2.4540    0.9710    0.0000 N   0  0  0  0  0  0  0  0  0  0  0  0
    3.3810   -0.1910    0.0000 C   0  0  0  0  0  0  0  0  0  0  0  0
    2.6380    0.1670    0.0000 C   0  0  0  0  0  0  0  0  0  0  0  0
    3.7940    1.6160    0.0000 C   0  0  0  0  0  0  0  0  0  0  0  0
    4.3080    0.9710    0.0000 C   0  0  0  0  0  0  0  0  0  0  0  0
    2.9690    1.6160    0.0000 C   0  0  0  0  0  0  0  0  0  0  0  0
    4.7700   -0.3480    0.0000 C   0  0  0  0  0  0  0  0  0  0  0  0
    3.4590   -1.0470    0.0000 C   0  0  0  0  0  0  0  0  0  0  0  0
    1.9200   -0.3060    0.0000 C   0  0  0  0  0  0  0  0  0  0  0  0
    1.6500    1.1540    0.0000 C   0  0  0  0  0  0  0  0  0  0  0  0
    2.7520   -1.5370    0.0000 C   0  0  0  0  0  0  0  0  0  0  0  0
    1.9780   -1.1640    0.0000 C   0  0  0  0  0  0  0  0  0  0  0  0
    5.5380   -0.0460    0.0000 C   0  0  0  0  0  0  0  0  0  0  0  0
    4.6470   -1.1640    0.0000 C   0  0  0  0  0  0  0  0  0  0  0  0
    6.1820   -0.5610    0.0000 C   0  0  0  0  0  0  0  0  0  0  0  0
    5.2920   -1.6780    0.0000 C   0  0  0  0  0  0  0  0  0  0  0  0
    6.0600   -1.3760    0.0000 C   0  0  0  0  0  0  0  0  0  0  0  0
  1 15  1  0  0  0  0
  2  9  2  0  0  0  0
  3 10  2  0  0  0  0
  4  6  1  0  0  0  0
  4  9  1  0  0  0  0
  4 11  1  0  0  0  0
  5  7  1  0  0  0  0
  5 10  1  0  0  0  0
  5 14  1  0  0  0  0
  6  7  2  0  0  0  0
  6 12  1  0  0  0  0
  7 13  1  0  0  0  0
  8  9  1  0  0  0  0
  8 10  1  0  0  0  0
 11 17  2  0  0  0  0
 11 18  1  0  0  0  0
 12 15  2  0  0  0  0
 13 16  2  0  0  0  0
 15 16  1  0  0  0  0
 17 19  1  0  0  0  0
 18 20  2  0  0  0  0
 19 21  2  0  0  0  0
 20 21  1  0  0  0  0
M  END
>  <DATABASE_ID>
DB00349

>  <DATABASE_NAME>
drugbank

>  <SMILES>
Clc1cc2N(C(=O)CC(=O)N(c2cc1)C)c1ccccc1

>  <INCHI_IDENTIFIER>
InChI=1S/C16H13ClN2O2/c1-18-13-8-7-11(17)9-14(13)19(16(21)10-15(18)20)12-5-3-2-4-6-12/h2-9H,10H2,1H3

>  <INCHI_KEY>
InChIKey=CXOXHMZGEKVPMT-UHFFFAOYSA-N

>  <JCHEM_ACCEPTOR_COUNT>
2

>  <JCHEM_AVERAGE_POLARIZABILITY>
30.066074

>  <JCHEM_BIOAVAILABILITY>
1

>  <JCHEM_DONOR_COUNT>
0

>  <JCHEM_EXACT_MASS>
300.06656

>  <JCHEM_FORMAL_CHARGE>
0

>  <JCHEM_FORMULA>
C16H13ClN2O2

>  <JCHEM_GHOSE_FILTER>
1

>  <JCHEM_IUPAC>
7-chloro-1-methyl-5-phenyl-2,3,4,5-tetrahydro-1H-1,5-benzodiazepine-2,4-dione

>  <ALOGPS_LOGP>
2.1400001

>  <JCHEM_LOGP>
2.5543759

>  <ALOGPS_LOGS>
-3.26

>  <JCHEM_MASS>
300.73999

>  <JCHEM_MDDR_LIKE_RULE>
0

>  <JCHEM_NUMBER_OF_RINGS>
3

>  <JCHEM_PHYSIOLOGICAL_CHARGE>
-1

>  <JCHEM_PKA_STRONGEST_ACIDIC>
4.0683041

>  <JCHEM_PKA_STRONGEST_BASIC>
-6.7230673

>  <JCHEM_POLAR_SURFACE_AREA>
40.619999

>  <JCHEM_REFRACTIVITY>
80.298599

>  <JCHEM_ROTATABLE_BOND_COUNT>
1

>  <JCHEM_RULE_OF_FIVE>
1

>  <ALOGPS_SOLUBILITY>
1.64e-01 g/l

>  <JCHEM_TRADITIONAL_IUPAC>
clobazam

>  <JCHEM_VEBER_RULE>
0

>  <DRUGBANK_ID>
DB00349

>  <DRUG_GROUPS>
approved; illicit

>  <GENERIC_NAME>
Clobazam

>  <SYNONYMS>
1-phenyl-5-methyl-8-chloro-1,2,4,5-tetrahydro-2,4-dioxo-3H-1,5-benzodiazepine; 7-Chloro-1-methyl-5-phenyl-1,5-dihydro-benzo[b][1,4]diazepine-2,4-dione; Clobazam; Clobazamum

>  <BRANDS>
Aedon; Castilium; Clobam; Clobamax; Frisium; Grifoclobam; Mystan; Noiafren; Onfi; Sederlona; Urbanil; Urbanol; Urbanyl; Venium

$$$$
Minoxidil
 OpenBabel02121510022D

 15 16  0  0  0  0  0  0  0  0999 V2000
   15.5390  -10.1720    0.0000 C   0  0  0  0  0  0  0  0  0  0  0  0
   16.2530   -9.7610    0.0000 N   0  0  0  0  0  0  0  0  0  0  0  0
   15.5390  -10.9960    0.0000 C   0  0  0  0  0  0  0  0  0  0  0  0
   14.8280   -9.7610    0.0000 N   0  0  0  0  0  0  0  0  0  0  0  0
   16.9670  -10.1750    0.0000 C   0  0  0  0  0  0  0  0  0  0  0  0
   16.2530   -8.9400    0.0000 C   0  0  0  0  0  0  0  0  0  0  0  0
   14.8280  -11.4110    0.0000 C   0  0  0  0  0  0  0  0  0  0  0  0
   14.1100  -10.1720    0.0000 C   0  0  0  0  0  0  0  0  0  0  0  0
   17.6820   -9.7640    0.0000 C   0  0  0  0  0  0  0  0  0  0  0  0
   16.9670   -8.5250    0.0000 C   0  0  0  0  0  0  0  0  0  0  0  0
   14.1100  -10.9960    0.0000 N   0  3  0  0  0  0  0  0  0  0  0  0
   14.8280  -12.2390    0.0000 N   0  0  0  0  0  0  0  0  0  0  0  0
   13.3960   -9.7610    0.0000 N   0  0  0  0  0  0  0  0  0  0  0  0
   17.6820   -8.9400    0.0000 C   0  0  0  0  0  0  0  0  0  0  0  0
   12.9180  -11.5000    0.0000 O   0  5  0  0  0  0  0  0  0  0  0  0
  1  2  1  0  0  0  0
  1  3  2  0  0  0  0
  1  4  1  0  0  0  0
  2  5  1  0  0  0  0
  2  6  1  0  0  0  0
  3  7  1  0  0  0  0
  4  8  2  0  0  0  0
  5  9  1  0  0  0  0
  6 10  1  0  0  0  0
  7 11  2  0  0  0  0
  7 12  1  0  0  0  0
  8 11  1  0  0  0  0
  8 13  1  0  0  0  0
  9 14  1  0  0  0  0
 10 14  1  0  0  0  0
 11 15  1  0  0  0  0
M  CHG  2  11   1  15  -1
M  END
>  <DATABASE_ID>
DB00350

>  <DATABASE_NAME>
drugbank

>  <SMILES>
[O-][n+]1c(N)cc(nc1N)N1CCCCC1

>  <INCHI_IDENTIFIER>
InChI=1S/C9H15N5O/c10-7-6-8(12-9(11)14(7)15)13-4-2-1-3-5-13/h6H,1-5,10H2,(H2,11,12)

>  <INCHI_KEY>
InChIKey=ZFMITUMMTDLWHR-UHFFFAOYSA-N

>  <JCHEM_ACCEPTOR_COUNT>
5

>  <JCHEM_AVERAGE_POLARIZABILITY>
21.92664

>  <JCHEM_BIOAVAILABILITY>
1

>  <JCHEM_DONOR_COUNT>
2

>  <JCHEM_EXACT_MASS>
209.12766

>  <JCHEM_FORMAL_CHARGE>
0

>  <JCHEM_FORMULA>
C9H15N5O

>  <JCHEM_GHOSE_FILTER>
1

>  <JCHEM_IUPAC>
2,6-diamino-4-(piperidin-1-yl)pyrimidin-1-ium-1-olate

>  <ALOGPS_LOGP>
1.24

>  <JCHEM_LOGP>
1.3007929

>  <ALOGPS_LOGS>
-1.02

>  <JCHEM_MASS>
209.24831

>  <JCHEM_MDDR_LIKE_RULE>
0

>  <JCHEM_NUMBER_OF_RINGS>
2

>  <JCHEM_PHYSIOLOGICAL_CHARGE>
0

>  <JCHEM_PKA>
18.777508

>  <JCHEM_PKA_STRONGEST_ACIDIC>
14.219513

>  <JCHEM_PKA_STRONGEST_BASIC>
4.3431749

>  <JCHEM_POLAR_SURFACE_AREA>
93.629997

>  <JCHEM_REFRACTIVITY>
60.7351

>  <JCHEM_ROTATABLE_BOND_COUNT>
1

>  <JCHEM_RULE_OF_FIVE>
1

>  <ALOGPS_SOLUBILITY>
1.99e+01 g/l

>  <JCHEM_TRADITIONAL_IUPAC>
rogaine

>  <JCHEM_VEBER_RULE>
0

>  <DRUGBANK_ID>
DB00350

>  <DRUG_GROUPS>
approved

>  <GENERIC_NAME>
Minoxidil

>  <SYNONYMS>
2,4-Diamino-6-piperidinopyrimidine 3-oxide; 6-Piperidin-1-ylpyrimidine-2,4-diamine 3-oxide; Minossidile; Minoxidil; Minoxidilum

>  <BRANDS>
Alostil; Apo-Gain; Avogain; Lipogaine; Loniten; Lonolox; Minodyl; Minoxigaine; Minoximen; Mintop; Regaine; Rogaine; Theroxidil; Tricoxidil; Vanarex

$$$$
Megestrol acetate
 OpenBabel02121510022D

 30 33  0  0  1  0  0  0  0  0999 V2000
    1.8040   -0.1140    0.0000 C   0  0  0  0  0  0  0  0  0  0  0  0
    0.3040   -1.0960    0.0000 C   0  0  0  0  0  0  0  0  0  0  0  0
    1.8040    1.2210    0.0000 C   0  0  2  0  0  0  0  0  0  0  0  0
    0.3040    1.3790    0.0000 C   0  0  0  0  0  0  0  0  0  0  0  0
    2.2880    0.5540    0.0000 C   0  0  0  0  0  0  0  0  0  0  0  0
   -1.1240   -0.2710    0.0000 C   0  0  2  0  0  0  0  0  0  0  0  0
   -0.4100    0.9660    0.0000 C   0  0  0  0  0  0  0  0  0  0  0  0
   -0.4100   -1.5090    0.0000 C   0  0  0  0  0  0  0  0  0  0  0  0
   -1.1240   -1.0960    0.0000 C   0  0  0  0  0  0  0  0  0  0  0  0
   -1.8390    0.1410    0.0000 C   0  0  0  0  0  0  0  0  0  0  0  0
   -1.8390   -1.5090    0.0000 C   0  0  0  0  0  0  0  0  0  0  0  0
   -2.5530   -0.2710    0.0000 C   0  0  0  0  0  0  0  0  0  0  0  0
    0.3040   -0.2710    0.0000 C   0  0  2  0  0  0  0  0  0  0  0  0
    0.3040    0.5540    0.0000 H   0  0  0  0  0  0  0  0  0  0  0  0
   -0.4100    0.1410    0.0000 C   0  0  1  0  0  0  0  0  0  0  0  0
   -0.4100   -0.6840    0.0000 H   0  0  0  0  0  0  0  0  0  0  0  0
    1.0190    0.9660    0.0000 C   0  0  2  0  0  0  0  0  0  0  0  0
    1.0190    1.7910    0.0000 C   0  0  0  0  0  0  0  0  0  0  0  0
    1.0190    0.1410    0.0000 C   0  0  1  0  0  0  0  0  0  0  0  0
    1.0190   -0.6840    0.0000 H   0  0  0  0  0  0  0  0  0  0  0  0
   -3.2680   -1.5090    0.0000 O   0  0  0  0  0  0  0  0  0  0  0  0
   -2.5530   -1.0960    0.0000 C   0  0  0  0  0  0  0  0  0  0  0  0
   -1.1240    0.5540    0.0000 C   0  0  0  0  0  0  0  0  0  0  0  0
    2.5180    1.6340    0.0000 O   0  0  0  0  0  0  0  0  0  0  0  0
    1.8040    2.0460    0.0000 C   0  0  0  0  0  0  0  0  0  0  0  0
    1.2200    2.6300    0.0000 C   0  0  0  0  0  0  0  0  0  0  0  0
    2.5180    2.4590    0.0000 O   0  0  0  0  0  0  0  0  0  0  0  0
    3.3430    1.6340    0.0000 C   0  0  0  0  0  0  0  0  0  0  0  0
    3.7560    0.9190    0.0000 C   0  0  0  0  0  0  0  0  0  0  0  0
    3.9260    2.2170    0.0000 O   0  0  0  0  0  0  0  0  0  0  0  0
  1  5  1  0  0  0  0
  1 19  1  0  0  0  0
  2  8  2  0  0  0  0
  2 13  1  0  0  0  0
  3  5  1  0  0  0  0
  3 17  1  0  0  0  0
  3 24  1  6  0  0  0
  3 25  1  0  0  0  0
  4  7  1  0  0  0  0
  4 17  1  0  0  0  0
  6  9  1  0  0  0  0
  6 10  1  0  0  0  0
  6 15  1  0  0  0  0
  6 23  1  1  0  0  0
  7 15  1  0  0  0  0
  8  9  1  0  0  0  0
  9 11  2  0  0  0  0
 10 12  1  0  0  0  0
 11 22  1  0  0  0  0
 12 22  1  0  0  0  0
 13 14  1  1  0  0  0
 13 15  1  0  0  0  0
 13 19  1  0  0  0  0
 15 16  1  6  0  0  0
 17 18  1  1  0  0  0
 17 19  1  0  0  0  0
 19 20  1  6  0  0  0
 21 22  2  0  0  0  0
 24 28  1  0  0  0  0
 25 26  1  0  0  0  0
 25 27  2  0  0  0  0
 28 29  1  0  0  0  0
 28 30  2  0  0  0  0
M  END
>  <DATABASE_ID>
DB00351

>  <DATABASE_NAME>
drugbank

>  <SMILES>
O=C1CC[C@@]2([C@@H]3[C@H]([C@@H]4CC[C@](OC(=O)C)(C(=O)C)[C@]4(CC3)C)C=CC2=C1)C

>  <INCHI_IDENTIFIER>
InChI=1S/C23H30O4/c1-14(24)23(27-15(2)25)12-9-20-18-6-5-16-13-17(26)7-10-21(16,3)19(18)8-11-22(20,23)4/h5-6,13,18-20H,7-12H2,1-4H3/t18-,19+,20+,21+,22+,23+/m1/s1

>  <INCHI_KEY>
InChIKey=URXWVWVPMJSAJD-KOORYGTMSA-N

>  <JCHEM_ACCEPTOR_COUNT>
3

>  <JCHEM_AVERAGE_POLARIZABILITY>
41.329533

>  <JCHEM_BIOAVAILABILITY>
1

>  <JCHEM_DONOR_COUNT>
0

>  <JCHEM_EXACT_MASS>
370.21442

>  <JCHEM_FORMAL_CHARGE>
0

>  <JCHEM_FORMULA>
C23H30O4

>  <JCHEM_GHOSE_FILTER>
1

>  <JCHEM_IUPAC>
(1S,2R,10R,11S,14R,15S)-14-acetyl-2,15-dimethyl-5-oxotetracyclo[8.7.0.0²,⁷.0¹¹,¹⁵]heptadeca-6,8-dien-14-yl acetate

>  <ALOGPS_LOGP>
2.99

>  <JCHEM_LOGP>
3.4803829

>  <ALOGPS_LOGS>
-5.04

>  <JCHEM_MASS>
370.4819

>  <JCHEM_MDDR_LIKE_RULE>
0

>  <JCHEM_NUMBER_OF_RINGS>
4

>  <JCHEM_PHYSIOLOGICAL_CHARGE>
0

>  <JCHEM_PKA>
19.941996

>  <JCHEM_PKA_STRONGEST_ACIDIC>
17.826315

>  <JCHEM_PKA_STRONGEST_BASIC>
-4.7711668

>  <JCHEM_POLAR_SURFACE_AREA>
60.439999

>  <JCHEM_REFRACTIVITY>
104.3734

>  <JCHEM_ROTATABLE_BOND_COUNT>
3

>  <JCHEM_RULE_OF_FIVE>
1

>  <ALOGPS_SOLUBILITY>
3.38e-03 g/l

>  <JCHEM_TRADITIONAL_IUPAC>
megestat

>  <JCHEM_VEBER_RULE>
0

>  <DRUGBANK_ID>
DB00351

>  <DRUG_GROUPS>
approved

>  <GENERIC_NAME>
Megestrol acetate

>  <SYNONYMS>
17-Acetoxy-6-methylpregna-4,6-diene-3,20-dione; 17-Hydroxy-6-methylpregna-4,6-diene-3,20-dione 17-acetate; 17α-Acetoxy-6-dehydro-6-methylprogesterone; 17α-Hydroxy-6-methylpregna-4,6-diene-3,20-dione acetate; 6-Dehydro-6-methyl-17α-acetoxyprogesterone; 6-Methyl-17α-acetoxypregna-4,6-diene-3,20-dione; 6-Methyl-17α-hydroxy-delta(sup 6)-progesterone acetate; 6-Methyl-6-dehydro-17α-acetoxyprogesterone; 6-Methyl-delta(sup 4,6)-pregnadien-17α-ol-3,20-dione acetate; 6-Methyl-delta(sup 6)-dehydro-17α-acetoxyprogesterone; MGA

>  <BRANDS>
Maygace; Megace; Megace ES; Megestil

$$$$
Tioguanine
 OpenBabel02121510022D

 11 12  0  0  0  0  0  0  0  0999 V2000
    3.5220    1.4930    0.0000 S   0  0  0  0  0  0  0  0  0  0  0  0
    3.5220   -0.9820    0.0000 N   0  0  0  0  0  0  0  0  0  0  0  0
    5.0170    0.5070    0.0000 N   0  0  0  0  0  0  0  0  0  0  0  0
    5.0170   -0.8210    0.0000 N   0  0  0  0  0  0  0  0  0  0  0  0
    2.8080    0.2560    0.0000 N   0  0  0  0  0  0  0  0  0  0  0  0
    2.0930   -0.9820    0.0000 N   0  0  0  0  0  0  0  0  0  0  0  0
    4.2360    0.2560    0.0000 C   0  0  0  0  0  0  0  0  0  0  0  0
    4.2360   -0.5690    0.0000 C   0  0  0  0  0  0  0  0  0  0  0  0
    3.5220    0.6680    0.0000 C   0  0  0  0  0  0  0  0  0  0  0  0
    2.8080   -0.5690    0.0000 C   0  0  0  0  0  0  0  0  0  0  0  0
    5.4990   -0.1570    0.0000 C   0  0  0  0  0  0  0  0  0  0  0  0
  1  9  2  0  0  0  0
  2  8  1  0  0  0  0
  2 10  1  0  0  0  0
  3  7  1  0  0  0  0
  3 11  1  0  0  0  0
  4  8  1  0  0  0  0
  4 11  2  0  0  0  0
  5  9  1  0  0  0  0
  5 10  2  0  0  0  0
  6 10  1  0  0  0  0
  7  8  2  0  0  0  0
  7  9  1  0  0  0  0
M  END
>  <DATABASE_ID>
DB00352

>  <DATABASE_NAME>
drugbank

>  <SMILES>
S=C1N=C(Nc2nc[nH]c12)N

>  <INCHI_IDENTIFIER>
InChI=1S/C5H5N5S/c6-5-9-3-2(4(11)10-5)7-1-8-3/h1H,(H4,6,7,8,9,10,11)

>  <INCHI_KEY>
InChIKey=WYWHKKSPHMUBEB-UHFFFAOYSA-N

>  <JCHEM_ACCEPTOR_COUNT>
4

>  <JCHEM_AVERAGE_POLARIZABILITY>
15.645581

>  <JCHEM_BIOAVAILABILITY>
1

>  <JCHEM_DONOR_COUNT>
3

>  <JCHEM_EXACT_MASS>
167.02657

>  <JCHEM_FORMAL_CHARGE>
0

>  <JCHEM_FORMULA>
C5H5N5S

>  <JCHEM_GHOSE_FILTER>
0

>  <JCHEM_IUPAC>
2-amino-6,7-dihydro-3H-purine-6-thione

>  <ALOGPS_LOGP>
-0.36000001

>  <JCHEM_LOGP>
-0.34946936

>  <ALOGPS_LOGS>
-2.3

>  <JCHEM_MASS>
167.192

>  <JCHEM_MDDR_LIKE_RULE>
0

>  <JCHEM_NUMBER_OF_RINGS>
2

>  <JCHEM_PHYSIOLOGICAL_CHARGE>
0

>  <JCHEM_PKA>
13.254381

>  <JCHEM_PKA_STRONGEST_ACIDIC>
10.52645

>  <JCHEM_PKA_STRONGEST_BASIC>
3.7004521

>  <JCHEM_POLAR_SURFACE_AREA>
79.089996

>  <JCHEM_REFRACTIVITY>
46.891998

>  <JCHEM_ROTATABLE_BOND_COUNT>
0

>  <JCHEM_RULE_OF_FIVE>
1

>  <ALOGPS_SOLUBILITY>
8.34e-01 g/l

>  <JCHEM_TRADITIONAL_IUPAC>
thioguanine

>  <JCHEM_VEBER_RULE>
0

>  <DRUGBANK_ID>
DB00352

>  <DRUG_GROUPS>
approved

>  <GENERIC_NAME>
Tioguanine

>  <SYNONYMS>
2-amino-1H-purine-6(7H)-thione; 2-aminopurine-6-thiol; Thioguanine; Tioguanin; Tioguanine; Tioguaninum

>  <BRANDS>
Lanvis; Tabloid; Tioguanina; Tioguanine

$$$$
Methylergometrine
 OpenBabel02121510022D

 26 29  0  0  1  0  0  0  0  0999 V2000
    3.0850    0.2570    0.0000 O   0  0  0  0  0  0  0  0  0  0  0  0
    2.3600    3.1420    0.0000 O   0  0  0  0  0  0  0  0  0  0  0  0
    5.9990    0.2570    0.0000 N   0  0  0  0  0  0  0  0  0  0  0  0
    6.8140   -3.2000    0.0000 N   0  0  0  0  0  0  0  0  0  0  0  0
    3.7950    1.4980    0.0000 N   0  0  0  0  0  0  0  0  0  0  0  0
    5.9860   -0.6020    0.0000 C   0  0  1  0  0  0  0  0  0  0  0  0
    5.2720   -1.0150    0.0000 C   0  0  0  0  0  0  0  0  0  0  0  0
    6.7000   -1.0150    0.0000 C   0  0  0  0  0  0  0  0  0  0  0  0
    4.5140    0.2630    0.0000 C   0  0  1  0  0  0  0  0  0  0  0  0
    5.2580    0.6920    0.0000 C   0  0  0  0  0  0  0  0  0  0  0  0
    6.7000   -1.8400    0.0000 C   0  0  0  0  0  0  0  0  0  0  0  0
    5.2720   -1.8400    0.0000 C   0  0  0  0  0  0  0  0  0  0  0  0
    5.9860   -2.2520    0.0000 C   0  0  0  0  0  0  0  0  0  0  0  0
    4.5210   -0.5960    0.0000 C   0  0  0  0  0  0  0  0  0  0  0  0
    5.9990   -3.1110    0.0000 C   0  0  0  0  0  0  0  0  0  0  0  0
    6.7180    0.6610    0.0000 C   0  0  0  0  0  0  0  0  0  0  0  0
    3.7980    0.6730    0.0000 C   0  0  0  0  0  0  0  0  0  0  0  0
    7.2100   -2.4820    0.0000 C   0  0  0  0  0  0  0  0  0  0  0  0
    4.5210   -2.2580    0.0000 C   0  0  0  0  0  0  0  0  0  0  0  0
    5.2580   -3.5470    0.0000 C   0  0  0  0  0  0  0  0  0  0  0  0
    4.5140   -3.1170    0.0000 C   0  0  0  0  0  0  0  0  0  0  0  0
    3.0790    1.9070    0.0000 C   0  0  1  0  0  0  0  0  0  0  0  0
    2.3660    1.4920    0.0000 C   0  0  0  0  0  0  0  0  0  0  0  0
    3.0760    2.7320    0.0000 C   0  0  0  0  0  0  0  0  0  0  0  0
    1.6500    1.9020    0.0000 C   0  0  0  0  0  0  0  0  0  0  0  0
    6.5960   -0.2560    0.0000 H   0  0  0  0  0  0  0  0  0  0  0  0
  1 17  2  0  0  0  0
  2 24  1  0  0  0  0
  3  6  1  0  0  0  0
  3 10  1  0  0  0  0
  3 16  1  0  0  0  0
  4 15  1  0  0  0  0
  4 18  1  0  0  0  0
  5 17  1  0  0  0  0
  6  7  1  0  0  0  0
  6  8  1  0  0  0  0
  6 26  1  1  0  0  0
  7 12  1  0  0  0  0
  7 14  2  0  0  0  0
  8 11  1  0  0  0  0
  9 10  1  0  0  0  0
  9 14  1  0  0  0  0
  9 17  1  1  0  0  0
 11 13  1  0  0  0  0
 11 18  2  0  0  0  0
 12 13  2  0  0  0  0
 12 19  1  0  0  0  0
 13 15  1  0  0  0  0
 15 20  2  0  0  0  0
 19 21  2  0  0  0  0
 20 21  1  0  0  0  0
 22  5  1  1  0  0  0
 22 23  1  0  0  0  0
 22 24  1  0  0  0  0
 23 25  1  0  0  0  0
M  END
>  <DATABASE_ID>
DB00353

>  <DATABASE_NAME>
drugbank

>  <SMILES>
OC[C@@H](NC(=O)[C@@H]1C=C2[C@H](N(C1)C)Cc1c3c2cccc3[nH]c1)CC

>  <INCHI_IDENTIFIER>
InChI=1S/C20H25N3O2/c1-3-14(11-24)22-20(25)13-7-16-15-5-4-6-17-19(15)12(9-21-17)8-18(16)23(2)10-13/h4-7,9,13-14,18,21,24H,3,8,10-11H2,1-2H3,(H,22,25)/t13-,14+,18-/m1/s1

>  <INCHI_KEY>
InChIKey=UNBRKDKAWYKMIV-QWQRMKEZSA-N

>  <JCHEM_ACCEPTOR_COUNT>
3

>  <JCHEM_AVERAGE_POLARIZABILITY>
38.729843

>  <JCHEM_BIOAVAILABILITY>
1

>  <JCHEM_DONOR_COUNT>
3

>  <JCHEM_EXACT_MASS>
339.19467

>  <JCHEM_FORMAL_CHARGE>
0

>  <JCHEM_FORMULA>
C20H25N3O2

>  <JCHEM_GHOSE_FILTER>
1

>  <JCHEM_IUPAC>
(4R,7R)-N-[(2S)-1-hydroxybutan-2-yl]-6-methyl-6,11-diazatetracyclo[7.6.1.0^{2,7}.0^{12,16}]hexadeca-1(16),2,9,12,14-pentaene-4-carboxamide

>  <ALOGPS_LOGP>
1.74

>  <JCHEM_LOGP>
1.5932183

>  <ALOGPS_LOGS>
-3.22

>  <JCHEM_MASS>
339.4314

>  <JCHEM_MDDR_LIKE_RULE>
0

>  <JCHEM_NUMBER_OF_RINGS>
4

>  <JCHEM_PHYSIOLOGICAL_CHARGE>
1

>  <JCHEM_PKA>
15.948892

>  <JCHEM_PKA_STRONGEST_ACIDIC>
14.997192

>  <JCHEM_PKA_STRONGEST_BASIC>
7.9273086

>  <JCHEM_POLAR_SURFACE_AREA>
68.360001

>  <JCHEM_REFRACTIVITY>
99.575897

>  <JCHEM_ROTATABLE_BOND_COUNT>
4

>  <JCHEM_RULE_OF_FIVE>
1

>  <ALOGPS_SOLUBILITY>
2.04e-01 g/l

>  <JCHEM_TRADITIONAL_IUPAC>
methylergonovine

>  <JCHEM_VEBER_RULE>
0

>  <DRUGBANK_ID>
DB00353

>  <DRUG_GROUPS>
approved

>  <GENERIC_NAME>
Methylergometrine

>  <SYNONYMS>
9,10-Didehydro-N-[1-(hydroxymethyl)-propyl]-D-lysergamide; D-lysergic acid 1-butanolamide; Methergine; Methylergobasin; Methylergometrin; Méthylergométrine; Methylergometrine; Methylergometrinum; Methylergonovine; Metilergometrina

>  <BRANDS>
Basofortina; Bledstop; Demergin; Ergogin; Ergomed; Ergomin; Ergotyl; Expogin; Glomethyl; Ingagen-M; Mem; Mergot; Mergotrex; Metenarin; Metermin; Méthergin; Methergin; Methergine; Metherinal; Metherspan; Methovin; Methylergobrevin; Methylergometrin; Metilat; Metiler; Metilergometrina; Metrine; Metrol; Metvell; Myomergin; Myometril; Neo-ergo; Partan M; Pospargin; Satergin; Usamema; Utergin; Uterine; Uterjin; Uterowin; Utesel

>  <SALTS>
Methylergometrine maleate; Methylergonovine tartrate

$$$$
Chlorzoxazone
 OpenBabel02121510022D

 11 12  0  0  0  0  0  0  0  0999 V2000
    1.6500    0.6620    0.0000 Cl  0  0  0  0  0  0  0  0  0  0  0  0
    4.5740   -0.8260    0.0000 O   0  0  0  0  0  0  0  0  0  0  0  0
    5.8810   -0.1620    0.0000 O   0  0  0  0  0  0  0  0  0  0  0  0
    4.5740    0.5010    0.0000 N   0  0  0  0  0  0  0  0  0  0  0  0
    3.7940    0.2500    0.0000 C   0  0  0  0  0  0  0  0  0  0  0  0
    3.7940   -0.5750    0.0000 C   0  0  0  0  0  0  0  0  0  0  0  0
    3.0790    0.6620    0.0000 C   0  0  0  0  0  0  0  0  0  0  0  0
    3.0790   -0.9880    0.0000 C   0  0  0  0  0  0  0  0  0  0  0  0
    2.3640    0.2500    0.0000 C   0  0  0  0  0  0  0  0  0  0  0  0
    5.0560   -0.1620    0.0000 C   0  0  0  0  0  0  0  0  0  0  0  0
    2.3640   -0.5750    0.0000 C   0  0  0  0  0  0  0  0  0  0  0  0
  1  9  1  0  0  0  0
  2  6  1  0  0  0  0
  2 10  1  0  0  0  0
  3 10  2  0  0  0  0
  4  5  1  0  0  0  0
  4 10  1  0  0  0  0
  5  6  2  0  0  0  0
  5  7  1  0  0  0  0
  6  8  1  0  0  0  0
  7  9  2  0  0  0  0
  8 11  2  0  0  0  0
  9 11  1  0  0  0  0
M  END
>  <DATABASE_ID>
DB00356

>  <DATABASE_NAME>
drugbank

>  <SMILES>
Clc1cc2NC(Oc2cc1)=O

>  <INCHI_IDENTIFIER>
InChI=1S/C7H4ClNO2/c8-4-1-2-6-5(3-4)9-7(10)11-6/h1-3H,(H,9,10)

>  <INCHI_KEY>
InChIKey=TZFWDZFKRBELIQ-UHFFFAOYSA-N

>  <JCHEM_ACCEPTOR_COUNT>
2

>  <JCHEM_AVERAGE_POLARIZABILITY>
14.939504

>  <JCHEM_BIOAVAILABILITY>
1

>  <JCHEM_DONOR_COUNT>
1

>  <JCHEM_EXACT_MASS>
168.99306

>  <JCHEM_FORMAL_CHARGE>
0

>  <JCHEM_FORMULA>
C7H4ClNO2

>  <JCHEM_GHOSE_FILTER>
0

>  <JCHEM_IUPAC>
5-chloro-2,3-dihydro-1,3-benzoxazol-2-one

>  <ALOGPS_LOGP>
2.0899999

>  <JCHEM_LOGP>
1.9356713

>  <ALOGPS_LOGS>
-1.76

>  <JCHEM_MASS>
169.565

>  <JCHEM_MDDR_LIKE_RULE>
0

>  <JCHEM_NUMBER_OF_RINGS>
2

>  <JCHEM_PHYSIOLOGICAL_CHARGE>
0

>  <JCHEM_PKA_STRONGEST_ACIDIC>
9.3907499

>  <JCHEM_PKA_STRONGEST_BASIC>
-2.1728461

>  <JCHEM_POLAR_SURFACE_AREA>
38.330002

>  <JCHEM_REFRACTIVITY>
41.069

>  <JCHEM_ROTATABLE_BOND_COUNT>
0

>  <JCHEM_RULE_OF_FIVE>
1

>  <ALOGPS_SOLUBILITY>
2.96e+00 g/l

>  <JCHEM_TRADITIONAL_IUPAC>
chlorzoxazone

>  <JCHEM_VEBER_RULE>
1

>  <DRUGBANK_ID>
DB00356

>  <DRUG_GROUPS>
approved

>  <GENERIC_NAME>
Chlorzoxazone

>  <SYNONYMS>
2-hydroxy-5-chlorobenzoxazole; 5-chloro-2(3H)-benzoxazolone; 5-chloro-3H-benzooxazol-2-one; 5-chlorobenzoxazolin-2-one; Chlorzoxane; Chlorzoxazon; Chlorzoxazone; Chlorzoxazonum; Clorzoxazona; Clorzoxazone

>  <BRANDS>
Lorzone; Myoflexin; Paraflex; Parafon Forte; Parafon Forte DSC; Relaxazone; Remular; Remular-S; Solaxin; Strifon Forte DSC

$$$$
Aminoglutethimide
 OpenBabel02121510022D

 17 18  0  0  1  0  0  0  0  0999 V2000
    1.6500   -0.4130    0.0000 O   0  0  0  0  0  0  0  0  0  0  0  0
    3.0790   -2.8880    0.0000 O   0  0  0  0  0  0  0  0  0  0  0  0
    2.3640   -1.6500    0.0000 N   0  0  0  0  0  0  0  0  0  0  0  0
    4.7290    2.4450    0.0000 N   0  0  0  0  0  0  0  0  0  0  0  0
    3.0790   -0.4130    0.0000 C   0  0  3  0  0  0  0  0  0  0  0  0
    3.7940   -0.8250    0.0000 C   0  0  0  0  0  0  0  0  0  0  0  0
    2.6660    0.3020    0.0000 C   0  0  0  0  0  0  0  0  0  0  0  0
    3.4920    0.3020    0.0000 C   0  0  0  0  0  0  0  0  0  0  0  0
    3.7940   -1.6500    0.0000 C   0  0  0  0  0  0  0  0  0  0  0  0
    2.3640   -0.8250    0.0000 C   0  0  0  0  0  0  0  0  0  0  0  0
    3.0790   -2.0630    0.0000 C   0  0  0  0  0  0  0  0  0  0  0  0
    1.8420    0.3020    0.0000 C   0  0  0  0  0  0  0  0  0  0  0  0
    3.0790    1.0160    0.0000 C   0  0  0  0  0  0  0  0  0  0  0  0
    4.3170    0.3020    0.0000 C   0  0  0  0  0  0  0  0  0  0  0  0
    3.4920    1.7310    0.0000 C   0  0  0  0  0  0  0  0  0  0  0  0
    4.7290    1.0160    0.0000 C   0  0  0  0  0  0  0  0  0  0  0  0
    4.3170    1.7310    0.0000 C   0  0  0  0  0  0  0  0  0  0  0  0
  1 10  2  0  0  0  0
  2 11  2  0  0  0  0
  3 10  1  0  0  0  0
  3 11  1  0  0  0  0
  4 17  1  0  0  0  0
  5  6  1  0  0  0  0
  5  7  1  0  0  0  0
  5  8  1  0  0  0  0
  5 10  1  0  0  0  0
  6  9  1  0  0  0  0
  7 12  1  0  0  0  0
  8 13  2  0  0  0  0
  8 14  1  0  0  0  0
  9 11  1  0  0  0  0
 13 15  1  0  0  0  0
 14 16  2  0  0  0  0
 15 17  2  0  0  0  0
 16 17  1  0  0  0  0
M  END
>  <DATABASE_ID>
DB00357

>  <DATABASE_NAME>
drugbank

>  <SMILES>
O=C1NC(=O)CCC1(CC)c1ccc(N)cc1

>  <INCHI_IDENTIFIER>
InChI=1S/C13H16N2O2/c1-2-13(8-7-11(16)15-12(13)17)9-3-5-10(14)6-4-9/h3-6H,2,7-8,14H2,1H3,(H,15,16,17)

>  <INCHI_KEY>
InChIKey=ROBVIMPUHSLWNV-UHFFFAOYSA-N

>  <JCHEM_ACCEPTOR_COUNT>
3

>  <JCHEM_AVERAGE_POLARIZABILITY>
24.694378

>  <JCHEM_BIOAVAILABILITY>
1

>  <JCHEM_DONOR_COUNT>
2

>  <JCHEM_EXACT_MASS>
232.12119

>  <JCHEM_FORMAL_CHARGE>
0

>  <JCHEM_FORMULA>
C13H16N2O2

>  <JCHEM_GHOSE_FILTER>
1

>  <JCHEM_IUPAC>
3-(4-aminophenyl)-3-ethylpiperidine-2,6-dione

>  <ALOGPS_LOGP>
1.49

>  <JCHEM_LOGP>
1.2995443

>  <ALOGPS_LOGS>
-2.8

>  <JCHEM_MASS>
232.27831

>  <JCHEM_MDDR_LIKE_RULE>
0

>  <JCHEM_NUMBER_OF_RINGS>
2

>  <JCHEM_PHYSIOLOGICAL_CHARGE>
0

>  <JCHEM_PKA_STRONGEST_ACIDIC>
11.691995

>  <JCHEM_PKA_STRONGEST_BASIC>
4.2774987

>  <JCHEM_POLAR_SURFACE_AREA>
72.190002

>  <JCHEM_REFRACTIVITY>
65.354301

>  <JCHEM_ROTATABLE_BOND_COUNT>
2

>  <JCHEM_RULE_OF_FIVE>
1

>  <ALOGPS_SOLUBILITY>
3.71e-01 g/l

>  <JCHEM_TRADITIONAL_IUPAC>
aminoglutethimide

>  <JCHEM_VEBER_RULE>
0

>  <DRUGBANK_ID>
DB00357

>  <DRUG_GROUPS>
approved

>  <GENERIC_NAME>
Aminoglutethimide

>  <SYNONYMS>
2-(p-Aminophenyl)-2-ethylglutarimide; Aminoglutethimid; Aminoglutéthimide; Aminoglutethimide; Aminoglutethimidum; Aminoglutetimida; Aminoglutetimide; Dl-Aminoglutethimide; Elipten; P-Aminoglutethimide

>  <BRANDS>
Cytadren; Mamomit; Orimeten; Rogluten

$$$$
Mefloquine
 OpenBabel02121510022D

 26 28  0  0  1  0  0  0  0  0999 V2000
    1.9520   -0.5090    0.0000 F   0  0  0  0  0  0  0  0  0  0  0  0
    1.6500   -1.6360    0.0000 F   0  0  0  0  0  0  0  0  0  0  0  0
    2.7770   -1.9380    0.0000 F   0  0  0  0  0  0  0  0  0  0  0  0
    4.4110   -2.0670    0.0000 F   0  0  0  0  0  0  0  0  0  0  0  0
    6.0610   -2.0860    0.0000 F   0  0  0  0  0  0  0  0  0  0  0  0
    5.2260   -2.9020    0.0000 F   0  0  0  0  0  0  0  0  0  0  0  0
    4.5080    1.6640    0.0000 O   0  0  0  0  0  0  0  0  0  0  0  0
    2.3640    1.2520    0.0000 N   0  0  0  0  0  0  0  0  0  0  0  0
    3.7930   -1.2230    0.0000 N   0  0  0  0  0  0  0  0  0  0  0  0
    3.0790    1.6640    0.0000 C   0  0  3  0  0  0  0  0  0  0  0  0
    3.0790    2.4890    0.0000 C   0  0  0  0  0  0  0  0  0  0  0  0
    3.7930    1.2520    0.0000 C   0  0  3  0  0  0  0  0  0  0  0  0
    2.3640    2.9020    0.0000 C   0  0  0  0  0  0  0  0  0  0  0  0
    1.6500    2.4890    0.0000 C   0  0  0  0  0  0  0  0  0  0  0  0
    1.6500    1.6640    0.0000 C   0  0  0  0  0  0  0  0  0  0  0  0
    3.7930    0.4270    0.0000 C   0  0  0  0  0  0  0  0  0  0  0  0
    4.5080    0.0140    0.0000 C   0  0  0  0  0  0  0  0  0  0  0  0
    3.0790    0.0140    0.0000 C   0  0  0  0  0  0  0  0  0  0  0  0
    4.5080   -0.8110    0.0000 C   0  0  0  0  0  0  0  0  0  0  0  0
    3.0790   -0.8110    0.0000 C   0  0  0  0  0  0  0  0  0  0  0  0
    5.2450    0.4550    0.0000 C   0  0  0  0  0  0  0  0  0  0  0  0
    5.2450   -1.2520    0.0000 C   0  0  0  0  0  0  0  0  0  0  0  0
    5.9930    0.0310    0.0000 C   0  0  0  0  0  0  0  0  0  0  0  0
    5.9930   -0.8280    0.0000 C   0  0  0  0  0  0  0  0  0  0  0  0
    2.3640   -1.2230    0.0000 C   0  0  0  0  0  0  0  0  0  0  0  0
    5.2360   -2.0770    0.0000 C   0  0  0  0  0  0  0  0  0  0  0  0
  1 25  1  0  0  0  0
  2 25  1  0  0  0  0
  3 25  1  0  0  0  0
  4 26  1  0  0  0  0
  5 26  1  0  0  0  0
  6 26  1  0  0  0  0
  7 12  1  0  0  0  0
  8 10  1  0  0  0  0
  8 15  1  0  0  0  0
  9 19  2  0  0  0  0
  9 20  1  0  0  0  0
 10 11  1  0  0  0  0
 10 12  1  0  0  0  0
 11 13  1  0  0  0  0
 12 16  1  0  0  0  0
 13 14  1  0  0  0  0
 14 15  1  0  0  0  0
 16 17  2  0  0  0  0
 16 18  1  0  0  0  0
 17 19  1  0  0  0  0
 17 21  1  0  0  0  0
 18 20  2  0  0  0  0
 19 22  1  0  0  0  0
 20 25  1  0  0  0  0
 21 23  2  0  0  0  0
 22 24  2  0  0  0  0
 22 26  1  0  0  0  0
 23 24  1  0  0  0  0
M  END
>  <DATABASE_ID>
DB00358

>  <DATABASE_NAME>
drugbank

>  <SMILES>
FC(F)(F)c1c2nc(cc(c2ccc1)C(O)C1NCCCC1)C(F)(F)F

>  <INCHI_IDENTIFIER>
InChI=1S/C17H16F6N2O/c18-16(19,20)11-5-3-4-9-10(15(26)12-6-1-2-7-24-12)8-13(17(21,22)23)25-14(9)11/h3-5,8,12,15,24,26H,1-2,6-7H2

>  <INCHI_KEY>
InChIKey=XEEQGYMUWCZPDN-UHFFFAOYSA-N

>  <JCHEM_ACCEPTOR_COUNT>
3

>  <JCHEM_AVERAGE_POLARIZABILITY>
31.733862

>  <JCHEM_BIOAVAILABILITY>
1

>  <JCHEM_DONOR_COUNT>
2

>  <JCHEM_EXACT_MASS>
378.11667

>  <JCHEM_FORMAL_CHARGE>
0

>  <JCHEM_FORMULA>
C17H16F6N2O

>  <JCHEM_GHOSE_FILTER>
1

>  <JCHEM_IUPAC>
[2,8-bis(trifluoromethyl)quinolin-4-yl](piperidin-2-yl)methanol

>  <ALOGPS_LOGP>
3.0999999

>  <JCHEM_LOGP>
4.1105947

>  <ALOGPS_LOGS>
-4

>  <JCHEM_MASS>
378.31219

>  <JCHEM_MDDR_LIKE_RULE>
0

>  <JCHEM_NUMBER_OF_RINGS>
3

>  <JCHEM_PHYSIOLOGICAL_CHARGE>
1

>  <JCHEM_PKA_STRONGEST_ACIDIC>
13.785841

>  <JCHEM_PKA_STRONGEST_BASIC>
9.4621725

>  <JCHEM_POLAR_SURFACE_AREA>
45.150002

>  <JCHEM_REFRACTIVITY>
82.5774

>  <JCHEM_ROTATABLE_BOND_COUNT>
4

>  <JCHEM_RULE_OF_FIVE>
1

>  <ALOGPS_SOLUBILITY>
3.80e-02 g/l

>  <JCHEM_TRADITIONAL_IUPAC>
mefloquine

>  <JCHEM_VEBER_RULE>
0

>  <DRUGBANK_ID>
DB00358

>  <DRUG_GROUPS>
approved

>  <GENERIC_NAME>
Mefloquine

>  <SYNONYMS>
[(R*,S*)-2,8-bis(trifluoromethyl)quinolin-4-yl]-(2-piperidyl)methanol; Mefloquin; Mefloquina; Méfloquine; Mefloquine; Mefloquinum

>  <BRANDS>
Eloquine; Facital; Falcital; Lariam; Larimef; Mefax; Mefliam; Meflon; Mefloquina; Mefloquine; Mefque; Mephaquin; Mephaquin Lactab; Mequin; Mqf; Suton; Tropicur

>  <SALTS>
Mefloquine Hydrochloride

$$$$
Clozapine
 OpenBabel02121510022D

 23 26  0  0  0  0  0  0  0  0999 V2000
   13.5850   -8.1000    0.0000 C   0  0  0  0  0  0  0  0  0  0  0  0
   13.0880   -7.4450    0.0000 C   0  0  0  0  0  0  0  0  0  0  0  0
   13.2860   -6.6450    0.0000 C   0  0  0  0  0  0  0  0  0  0  0  0
   14.0300   -6.3040    0.0000 N   0  0  0  0  0  0  0  0  0  0  0  0
   14.4140   -8.1150    0.0000 N   0  0  0  0  0  0  0  0  0  0  0  0
   14.7690   -6.6710    0.0000 C   0  0  0  0  0  0  0  0  0  0  0  0
   14.9380   -7.4780    0.0000 C   0  0  0  0  0  0  0  0  0  0  0  0
   12.6920   -6.0730    0.0000 C   0  0  0  0  0  0  0  0  0  0  0  0
   11.9000   -6.3020    0.0000 C   0  0  0  0  0  0  0  0  0  0  0  0
   11.7020   -7.1030    0.0000 C   0  0  0  0  0  0  0  0  0  0  0  0
   12.2960   -7.6740    0.0000 C   0  0  0  0  0  0  0  0  0  0  0  0
   15.7240   -7.7360    0.0000 C   0  0  0  0  0  0  0  0  0  0  0  0
   16.3400   -7.1850    0.0000 C   0  0  0  0  0  0  0  0  0  0  0  0
   16.1710   -6.3770    0.0000 C   0  0  0  0  0  0  0  0  0  0  0  0
   15.3850   -6.1190    0.0000 C   0  0  0  0  0  0  0  0  0  0  0  0
   13.2100   -8.8370    0.0000 N   0  0  0  0  0  0  0  0  0  0  0  0
   12.3840   -8.8370    0.0000 C   0  0  0  0  0  0  0  0  0  0  0  0
   11.9700   -9.5530    0.0000 C   0  0  0  0  0  0  0  0  0  0  0  0
   12.3840  -10.2690    0.0000 N   0  0  0  0  0  0  0  0  0  0  0  0
   13.2100  -10.2690    0.0000 C   0  0  0  0  0  0  0  0  0  0  0  0
   13.6240   -9.5530    0.0000 C   0  0  0  0  0  0  0  0  0  0  0  0
   17.1390   -7.4470    0.0000 Cl  0  0  0  0  0  0  0  0  0  0  0  0
   11.9660  -10.9910    0.0000 C   0  0  0  0  0  0  0  0  0  0  0  0
  1  2  1  0  0  0  0
  1  5  2  0  0  0  0
  1 16  1  0  0  0  0
  2  3  1  0  0  0  0
  2 11  2  0  0  0  0
  3  4  1  0  0  0  0
  3  8  2  0  0  0  0
  4  6  1  0  0  0  0
  5  7  1  0  0  0  0
  6  7  1  0  0  0  0
  6 15  2  0  0  0  0
  7 12  2  0  0  0  0
  8  9  1  0  0  0  0
  9 10  2  0  0  0  0
 10 11  1  0  0  0  0
 12 13  1  0  0  0  0
 13 14  2  0  0  0  0
 13 22  1  0  0  0  0
 14 15  1  0  0  0  0
 16 17  1  0  0  0  0
 16 21  1  0  0  0  0
 17 18  1  0  0  0  0
 18 19  1  0  0  0  0
 19 20  1  0  0  0  0
 19 23  1  0  0  0  0
 20 21  1  0  0  0  0
M  END
>  <DATABASE_ID>
DB00363

>  <DATABASE_NAME>
drugbank

>  <SMILES>
Clc1cc2N=C(N3CCN(CC3)C)c3c(Nc2cc1)cccc3

>  <INCHI_IDENTIFIER>
InChI=1S/C18H19ClN4/c1-22-8-10-23(11-9-22)18-14-4-2-3-5-15(14)20-16-7-6-13(19)12-17(16)21-18/h2-7,12,20H,8-11H2,1H3

>  <INCHI_KEY>
InChIKey=QZUDBNBUXVUHMW-UHFFFAOYSA-N

>  <JCHEM_ACCEPTOR_COUNT>
4

>  <JCHEM_AVERAGE_POLARIZABILITY>
35.769783

>  <JCHEM_BIOAVAILABILITY>
1

>  <JCHEM_DONOR_COUNT>
1

>  <JCHEM_EXACT_MASS>
326.12982

>  <JCHEM_FORMAL_CHARGE>
0

>  <JCHEM_FORMULA>
C18H19ClN4

>  <JCHEM_GHOSE_FILTER>
1

>  <JCHEM_IUPAC>
6-chloro-10-(4-methylpiperazin-1-yl)-2,9-diazatricyclo[9.4.0.0^{3,8}]pentadeca-1(11),3(8),4,6,9,12,14-heptaene

>  <ALOGPS_LOGP>
3.6700001

>  <JCHEM_LOGP>
3.4002411

>  <ALOGPS_LOGS>
-3.25

>  <JCHEM_MASS>
326.823

>  <JCHEM_MDDR_LIKE_RULE>
0

>  <JCHEM_NUMBER_OF_RINGS>
4

>  <JCHEM_PHYSIOLOGICAL_CHARGE>
1

>  <JCHEM_PKA_STRONGEST_ACIDIC>
15.900125

>  <JCHEM_PKA_STRONGEST_BASIC>
7.3510089

>  <JCHEM_POLAR_SURFACE_AREA>
30.870001

>  <JCHEM_REFRACTIVITY>
97.356499

>  <JCHEM_ROTATABLE_BOND_COUNT>
0

>  <JCHEM_RULE_OF_FIVE>
1

>  <ALOGPS_SOLUBILITY>
1.86e-01 g/l

>  <JCHEM_TRADITIONAL_IUPAC>
6-chloro-10-(4-methylpiperazin-1-yl)-2,9-diazatricyclo[9.4.0.0^{3,8}]pentadeca-1(11),3(8),4,6,9,12,14-heptaene

>  <JCHEM_VEBER_RULE>
1

>  <DRUGBANK_ID>
DB00363

>  <DRUG_GROUPS>
approved

>  <GENERIC_NAME>
Clozapine

>  <SYNONYMS>
Clozapin; Clozapine; Clozapinum

>  <BRANDS>
Azaleptine; Chlorpromazine; Cloment; Clonex; Clopin; Clopine; Clopsine; Clorazem; Clozapine; Clozaril; FazaClo; Lanolept; Lapenax; Leponex; Lodux; Lozapin; Luften; Mezapin; Refract; Refraxol; Sensipin; Sequax; Sizopin; Sizopril; Syclop; Syzopin; Tanyl; Uspen; VERSACLOZ; Zapen; Zapenia; Zapine; Ziproc; Zopin

$$$$
Sucralfate
 OpenBabel02121510022D

 78 79  0  0  1  0  0  0  0  0999 V2000
    1.3850    3.4640    0.0000 O   0  0  0  0  0  0  0  0  0  0  0  0
    1.0640    4.2190    0.0000 Al  0  0  0  0  0  0  0  0  0  0  0  0
    1.7270    4.6590    0.0000 O   0  0  0  0  0  0  0  0  0  0  0  0
    0.2890    4.4780    0.0000 O   0  0  0  0  0  0  0  0  0  0  0  0
   -0.5330    4.6290    0.0000 S   0  0  0  0  0  0  0  0  0  0  0  0
   -0.5160    5.4570    0.0000 O   0  0  0  0  0  0  0  0  0  0  0  0
   -0.6050    3.8110    0.0000 O   0  0  0  0  0  0  0  0  0  0  0  0
   -1.3640    4.6020    0.0000 O   0  0  0  0  0  0  0  0  0  0  0  0
   -2.1460    4.3260    0.0000 C   0  0  0  0  0  0  0  0  0  0  0  0
   -2.8440    3.8670    0.0000 C   0  0  1  0  0  0  0  0  0  0  0  0
   -2.3770    3.2170    0.0000 O   0  0  0  0  0  0  0  0  0  0  0  0
   -2.7060    2.4880    0.0000 C   0  0  1  0  0  0  0  0  0  0  0  0
   -2.2060    1.8480    0.0000 O   0  0  0  0  0  0  0  0  0  0  0  0
   -2.5680    1.1090    0.0000 C   0  0  2  0  0  0  0  0  0  0  0  0
   -1.6960    0.9840    0.0000 C   0  0  0  0  0  0  0  0  0  0  0  0
   -0.8520    0.9300    0.0000 O   0  0  0  0  0  0  0  0  0  0  0  0
    0.0020    0.9190    0.0000 S   0  0  0  0  0  0  0  0  0  0  0  0
   -0.0740    1.7450    0.0000 O   0  0  0  0  0  0  0  0  0  0  0  0
    0.2190    0.1220    0.0000 O   0  0  0  0  0  0  0  0  0  0  0  0
    0.8340    0.9960    0.0000 O   0  0  0  0  0  0  0  0  0  0  0  0
    1.6590    0.9840    0.0000 Al  0  0  0  0  0  0  0  0  0  0  0  0
    2.2030    1.5910    0.0000 O   0  0  0  0  0  0  0  0  0  0  0  0
    2.2510    0.4180    0.0000 O   0  0  0  0  0  0  0  0  0  0  0  0
   -3.2590    1.5120    0.0000 O   0  0  0  0  0  0  0  0  0  0  0  0
   -3.8560    0.9800    0.0000 C   0  0  2  0  0  0  0  0  0  0  0  0
   -4.5990    0.4690    0.0000 O   0  0  0  0  0  0  0  0  0  0  0  0
   -5.3380   -0.0460    0.0000 S   0  0  0  0  0  0  0  0  0  0  0  0
   -4.9140   -0.7570    0.0000 O   0  0  0  0  0  0  0  0  0  0  0  0
   -6.1450    0.2600    0.0000 O   0  0  0  0  0  0  0  0  0  0  0  0
   -5.8880   -0.7160    0.0000 O   0  0  0  0  0  0  0  0  0  0  0  0
   -6.5140   -1.2450    0.0000 Al  0  0  0  0  0  0  0  0  0  0  0  0
   -6.7520   -2.0710    0.0000 O   0  0  0  0  0  0  0  0  0  0  0  0
   -7.3690   -1.0800    0.0000 O   0  0  0  0  0  0  0  0  0  0  0  0
   -3.5340    0.2470    0.0000 C   0  0  1  0  0  0  0  0  0  0  0  0
   -3.8190   -0.5900    0.0000 O   0  0  0  0  0  0  0  0  0  0  0  0
   -4.0420   -1.4470    0.0000 S   0  0  0  0  0  0  0  0  0  0  0  0
   -3.2800   -1.8540    0.0000 O   0  0  0  0  0  0  0  0  0  0  0  0
   -4.7570   -1.7360    0.0000 O   0  0  0  0  0  0  0  0  0  0  0  0
   -4.0860   -2.3120    0.0000 O   0  0  0  0  0  0  0  0  0  0  0  0
   -4.2480   -3.1780    0.0000 Al  0  0  0  0  0  0  0  0  0  0  0  0
   -4.9080   -3.5560    0.0000 O   0  0  0  0  0  0  0  0  0  0  0  0
   -3.8160   -3.8500    0.0000 O   0  0  0  0  0  0  0  0  0  0  0  0
   -2.7380    0.3270    0.0000 C   0  0  2  0  0  0  0  0  0  0  0  0
   -2.1860   -0.3470    0.0000 O   0  0  0  0  0  0  0  0  0  0  0  0
   -1.6680   -1.0160    0.0000 S   0  0  0  0  0  0  0  0  0  0  0  0
   -2.3340   -1.5350    0.0000 O   0  0  0  0  0  0  0  0  0  0  0  0
   -0.8710   -0.8210    0.0000 O   0  0  0  0  0  0  0  0  0  0  0  0
   -1.3480   -1.7990    0.0000 O   0  0  0  0  0  0  0  0  0  0  0  0
   -1.1570   -2.6070    0.0000 Al  0  0  0  0  0  0  0  0  0  0  0  0
   -1.7780   -3.1120    0.0000 O   0  0  0  0  0  0  0  0  0  0  0  0
   -0.5980   -3.1970    0.0000 O   0  0  0  0  0  0  0  0  0  0  0  0
   -3.5020    2.4080    0.0000 C   0  0  2  0  0  0  0  0  0  0  0  0
   -4.3680    2.1810    0.0000 O   0  0  0  0  0  0  0  0  0  0  0  0
   -5.2380    1.9940    0.0000 S   0  0  0  0  0  0  0  0  0  0  0  0
   -5.4460    1.2420    0.0000 O   0  0  0  0  0  0  0  0  0  0  0  0
   -5.6920    2.6870    0.0000 O   0  0  0  0  0  0  0  0  0  0  0  0
   -6.1020    1.8820    0.0000 O   0  0  0  0  0  0  0  0  0  0  0  0
   -6.9420    1.8430    0.0000 Al  0  0  0  0  0  0  0  0  0  0  0  0
   -3.9690    3.0580    0.0000 C   0  0  1  0  0  0  0  0  0  0  0  0
   -4.7180    3.5410    0.0000 O   0  0  0  0  0  0  0  0  0  0  0  0
   -5.4360    4.0160    0.0000 S   0  0  0  0  0  0  0  0  0  0  0  0
   -6.1090    3.5310    0.0000 O   0  0  0  0  0  0  0  0  0  0  0  0
   -5.3190    4.8400    0.0000 O   0  0  0  0  0  0  0  0  0  0  0  0
   -6.1950    4.4450    0.0000 O   0  0  0  0  0  0  0  0  0  0  0  0
   -7.0080    4.6980    0.0000 Al  0  0  0  0  0  0  0  0  0  0  0  0
   -7.7060    4.2850    0.0000 O   0  0  0  0  0  0  0  0  0  0  0  0
   -7.4540    5.3800    0.0000 O   0  0  0  0  0  0  0  0  0  0  0  0
   -3.6400    3.7870    0.0000 C   0  0  2  0  0  0  0  0  0  0  0  0
   -3.6890    4.6480    0.0000 O   0  0  0  0  0  0  0  0  0  0  0  0
   -3.6870    5.5160    0.0000 S   0  0  0  0  0  0  0  0  0  0  0  0
   -4.5080    5.5970    0.0000 O   0  0  0  0  0  0  0  0  0  0  0  0
   -2.9040    5.7780    0.0000 O   0  0  0  0  0  0  0  0  0  0  0  0
   -3.8120    6.3490    0.0000 O   0  0  0  0  0  0  0  0  0  0  0  0
   -4.0200    7.1650    0.0000 Al  0  0  0  0  0  0  0  0  0  0  0  0
   -4.7070    7.6100    0.0000 O   0  0  0  0  0  0  0  0  0  0  0  0
   -3.5620    7.8360    0.0000 O   0  0  0  0  0  0  0  0  0  0  0  0
   -7.5780    2.3690    0.0000 O   0  0  0  0  0  0  0  0  0  0  0  0
   -7.5320    1.2580    0.0000 O   0  0  0  0  0  0  0  0  0  0  0  0
  1  2  1  0  0  0  0
  2  3  1  0  0  0  0
  2  4  1  0  0  0  0
  4  5  1  0  0  0  0
  5  6  2  0  0  0  0
  5  7  2  0  0  0  0
  5  8  1  0  0  0  0
  8  9  1  0  0  0  0
 10  9  1  1  0  0  0
 10 11  1  0  0  0  0
 10 68  1  0  0  0  0
 11 12  1  0  0  0  0
 12 13  1  1  0  0  0
 12 52  1  0  0  0  0
 14 13  1  1  0  0  0
 14 15  1  0  0  0  0
 14 24  1  0  0  0  0
 14 43  1  0  0  0  0
 15 16  1  0  0  0  0
 16 17  1  0  0  0  0
 17 18  2  0  0  0  0
 17 19  2  0  0  0  0
 17 20  1  0  0  0  0
 20 21  1  0  0  0  0
 21 22  1  0  0  0  0
 21 23  1  0  0  0  0
 24 25  1  0  0  0  0
 25 26  1  1  0  0  0
 25 34  1  0  0  0  0
 26 27  1  0  0  0  0
 27 28  2  0  0  0  0
 27 29  2  0  0  0  0
 27 30  1  0  0  0  0
 30 31  1  0  0  0  0
 31 32  1  0  0  0  0
 31 33  1  0  0  0  0
 34 35  1  6  0  0  0
 34 43  1  0  0  0  0
 35 36  1  0  0  0  0
 36 37  2  0  0  0  0
 36 38  2  0  0  0  0
 36 39  1  0  0  0  0
 39 40  1  0  0  0  0
 40 41  1  0  0  0  0
 40 42  1  0  0  0  0
 43 44  1  1  0  0  0
 44 45  1  0  0  0  0
 45 46  2  0  0  0  0
 45 47  2  0  0  0  0
 45 48  1  0  0  0  0
 48 49  1  0  0  0  0
 49 50  1  0  0  0  0
 49 51  1  0  0  0  0
 52 53  1  6  0  0  0
 52 59  1  0  0  0  0
 53 54  1  0  0  0  0
 54 55  2  0  0  0  0
 54 56  2  0  0  0  0
 54 57  1  0  0  0  0
 57 58  1  0  0  0  0
 58 77  1  0  0  0  0
 58 78  1  0  0  0  0
 59 60  1  1  0  0  0
 59 68  1  0  0  0  0
 60 61  1  0  0  0  0
 61 62  2  0  0  0  0
 61 63  2  0  0  0  0
 61 64  1  0  0  0  0
 64 65  1  0  0  0  0
 65 66  1  0  0  0  0
 65 67  1  0  0  0  0
 68 69  1  6  0  0  0
 69 70  1  0  0  0  0
 70 71  2  0  0  0  0
 70 72  2  0  0  0  0
 70 73  1  0  0  0  0
 73 74  1  0  0  0  0
 74 75  1  0  0  0  0
 74 76  1  0  0  0  0
M  END
>  <DATABASE_ID>
DB00364

>  <DATABASE_NAME>
drugbank

>  <SMILES>
S(O[C@H]1[C@H](OS(O[Al](O)O)(=O)=O)[C@H](O[C@@H](O[C@@]2(O[C@H](OS(O[Al](O)O)(=O)=O)[C@@H](OS(O[Al](O)O)(=O)=O)[C@@H]2OS(O[Al](O)O)(=O)=O)COS(O[Al](O)O)(=O)=O)[C@@H]1OS(O[Al](O)O)(=O)=O)COS(O[Al](O)O)(=O)=O)(O[Al](O)O)(=O)=O

>  <INCHI_IDENTIFIER>
InChI=1S/C11H20O35S8.8Al.16H2O/c12-47(13,14)36-1-3-4(41-49(18,19)20)5(42-50(21,22)23)6(43-51(24,25)26)9(38-3)39-11(2-37-48(15,16)17)8(45-53(30,31)32)7(44-52(27,28)29)10(40-11)46-54(33,34)35;;;;;;;;;;;;;;;;;;;;;;;;/h3-10H,1-2H2,(H,12,13,14)(H,15,16,17)(H,18,19,20)(H,21,22,23)(H,24,25,26)(H,27,28,29)(H,30,31,32)(H,33,34,35);;;;;;;;;16*1H2/q;8*+3;;;;;;;;;;;;;;;;/p-24/t3-,4-,5+,6-,7+,8+,9+,10-,11-;;;;;;;;;;;;;;;;;;;;;;;;/m1......................../s1

>  <INCHI_KEY>
InChIKey=MNQYNQBOVCBZIQ-JQOFMKNESA-A

>  <JCHEM_ACCEPTOR_COUNT>
35

>  <JCHEM_AVERAGE_POLARIZABILITY>
105.21644

>  <JCHEM_BIOAVAILABILITY>
0

>  <JCHEM_DONOR_COUNT>
16

>  <JCHEM_EXACT_MASS>
1447.5886

>  <JCHEM_FORMAL_CHARGE>
0

>  <JCHEM_FORMULA>
C11H28Al8O51S8

>  <JCHEM_GHOSE_FILTER>
0

>  <JCHEM_IUPAC>
[({[(2S,3R,4S,5R,6R)-4,5-bis({[(dihydroxyalumanyl)oxy]sulfonyl}oxy)-6-[({[(dihydroxyalumanyl)oxy]sulfonyl}oxy)methyl]-2-{[(2R,3S,4S,5R)-3,4,5-tris({[(dihydroxyalumanyl)oxy]sulfonyl}oxy)-2-[({[(dihydroxyalumanyl)oxy]sulfonyl}oxy)methyl]oxolan-2-yl]oxy}oxan-3-yl]oxy}sulfonyl)oxy]alumanediol

>  <ALOGPS_LOGP>
0.98000002

>  <JCHEM_LOGP>
-5.6048999

>  <ALOGPS_LOGS>
-3.3099999

>  <JCHEM_MASS>
1448.682

>  <JCHEM_MDDR_LIKE_RULE>
0

>  <JCHEM_NUMBER_OF_RINGS>
2

>  <JCHEM_PHYSIOLOGICAL_CHARGE>
0

>  <JCHEM_PKA>
13.959584

>  <JCHEM_PKA_STRONGEST_ACIDIC>
13.533897

>  <JCHEM_PKA_STRONGEST_BASIC>
-3.0450532

>  <JCHEM_POLAR_SURFACE_AREA>
772.16998

>  <JCHEM_REFRACTIVITY>
175.0943

>  <JCHEM_ROTATABLE_BOND_COUNT>
36

>  <JCHEM_RULE_OF_FIVE>
0

>  <ALOGPS_SOLUBILITY>
7.14e-01 g/l

>  <JCHEM_TRADITIONAL_IUPAC>
({[(2S,3R,4S,5R,6R)-4,5-di{[(dihydroxyalumanyl)oxysulfonyl]oxy}-6-({[(dihydroxyalumanyl)oxysulfonyl]oxy}methyl)-2-{[(2R,3S,4S,5R)-3,4,5-tri{[(dihydroxyalumanyl)oxysulfonyl]oxy}-2-({[(dihydroxyalumanyl)oxysulfonyl]oxy}methyl)oxolan-2-yl]oxy}oxan-3-yl]oxysulfonyl}oxy)alumanediol

>  <JCHEM_VEBER_RULE>
0

>  <DRUGBANK_ID>
DB00364

>  <DRUG_GROUPS>
approved

>  <GENERIC_NAME>
Sucralfate

>  <SYNONYMS>
Hexadeca-μ-hydroxytetracosahydroxy[μ8-[1,3,4,6-tetra-O-sulfo-β-Dfructofuranosyl-α-D-glucopyranoside tetrakis(hydrogen sulfato)8-)]]hexadecaaluminum; Sucralfat; Sucralfate; Sucralfato; Sucralfatum

>  <BRANDS>
Antepsin; Carafate; Sucramal; Sucraxol; Sulcrate; Ulcogant

$$$$
Doxylamine
 OpenBabel02121510022D

 20 21  0  0  1  0  0  0  0  0999 V2000
    3.3000    0.0000    0.0000 O   0  0  0  0  0  0  0  0  0  0  0  0
    4.9500   -1.4290    0.0000 N   0  0  0  0  0  0  0  0  0  0  0  0
    3.1900   -1.2380    0.0000 N   0  0  0  0  0  0  0  0  0  0  0  0
    2.4750    0.0000    0.0000 C   0  0  3  0  0  0  0  0  0  0  0  0
    2.4750    0.8250    0.0000 C   0  0  0  0  0  0  0  0  0  0  0  0
    2.4750   -0.8250    0.0000 C   0  0  0  0  0  0  0  0  0  0  0  0
    1.6500    0.0000    0.0000 C   0  0  0  0  0  0  0  0  0  0  0  0
    3.7130   -0.7140    0.0000 C   0  0  0  0  0  0  0  0  0  0  0  0
    4.5380   -0.7140    0.0000 C   0  0  0  0  0  0  0  0  0  0  0  0
    1.7610    1.2380    0.0000 C   0  0  0  0  0  0  0  0  0  0  0  0
    3.1900    1.2380    0.0000 C   0  0  0  0  0  0  0  0  0  0  0  0
    1.7610   -1.2380    0.0000 C   0  0  0  0  0  0  0  0  0  0  0  0
    1.7610    2.0620    0.0000 C   0  0  0  0  0  0  0  0  0  0  0  0
    3.1900    2.0620    0.0000 C   0  0  0  0  0  0  0  0  0  0  0  0
    1.7610   -2.0620    0.0000 C   0  0  0  0  0  0  0  0  0  0  0  0
    2.4750    2.4750    0.0000 C   0  0  0  0  0  0  0  0  0  0  0  0
    5.7750   -1.4290    0.0000 C   0  0  0  0  0  0  0  0  0  0  0  0
    4.5380   -2.1440    0.0000 C   0  0  0  0  0  0  0  0  0  0  0  0
    3.1900   -2.0620    0.0000 C   0  0  0  0  0  0  0  0  0  0  0  0
    2.4750   -2.4750    0.0000 C   0  0  0  0  0  0  0  0  0  0  0  0
  1  4  1  0  0  0  0
  1  8  1  0  0  0  0
  2  9  1  0  0  0  0
  2 17  1  0  0  0  0
  2 18  1  0  0  0  0
  3  6  1  0  0  0  0
  3 19  2  0  0  0  0
  4  5  1  0  0  0  0
  4  6  1  0  0  0  0
  4  7  1  0  0  0  0
  5 10  2  0  0  0  0
  5 11  1  0  0  0  0
  6 12  2  0  0  0  0
  8  9  1  0  0  0  0
 10 13  1  0  0  0  0
 11 14  2  0  0  0  0
 12 15  1  0  0  0  0
 13 16  2  0  0  0  0
 14 16  1  0  0  0  0
 15 20  2  0  0  0  0
 19 20  1  0  0  0  0
M  END
>  <DATABASE_ID>
DB00366

>  <DATABASE_NAME>
drugbank

>  <SMILES>
O(C(C)(c1ccccc1)c1ncccc1)CCN(C)C

>  <INCHI_IDENTIFIER>
InChI=1S/C17H22N2O/c1-17(20-14-13-19(2)3,15-9-5-4-6-10-15)16-11-7-8-12-18-16/h4-12H,13-14H2,1-3H3

>  <INCHI_KEY>
InChIKey=HCFDWZZGGLSKEP-UHFFFAOYSA-N

>  <JCHEM_ACCEPTOR_COUNT>
3

>  <JCHEM_AVERAGE_POLARIZABILITY>
31.090988

>  <JCHEM_BIOAVAILABILITY>
1

>  <JCHEM_DONOR_COUNT>
0

>  <JCHEM_EXACT_MASS>
270.17322

>  <JCHEM_FORMAL_CHARGE>
0

>  <JCHEM_FORMULA>
C17H22N2O

>  <JCHEM_GHOSE_FILTER>
1

>  <JCHEM_IUPAC>
dimethyl({2-[1-phenyl-1-(pyridin-2-yl)ethoxy]ethyl})amine

>  <ALOGPS_LOGP>
2.9000001

>  <JCHEM_LOGP>
2.9619422

>  <ALOGPS_LOGS>
-2.7

>  <JCHEM_MASS>
270.36938

>  <JCHEM_MDDR_LIKE_RULE>
0

>  <JCHEM_NUMBER_OF_RINGS>
2

>  <JCHEM_PHYSIOLOGICAL_CHARGE>
1

>  <JCHEM_PKA_STRONGEST_BASIC>
8.8664169

>  <JCHEM_POLAR_SURFACE_AREA>
25.360001

>  <JCHEM_REFRACTIVITY>
82.237297

>  <JCHEM_ROTATABLE_BOND_COUNT>
6

>  <JCHEM_RULE_OF_FIVE>
1

>  <ALOGPS_SOLUBILITY>
5.41e-01 g/l

>  <JCHEM_TRADITIONAL_IUPAC>
doxylamine

>  <JCHEM_VEBER_RULE>
1

>  <DRUGBANK_ID>
DB00366

>  <DRUG_GROUPS>
approved

>  <GENERIC_NAME>
Doxylamine

>  <SYNONYMS>
Dossilamina; Doxilminio; Doxylaminum

$$$$
Levonorgestrel
 OpenBabel02121510022D

 27 30  0  0  1  0  0  0  0  0999 V2000
    6.6260    1.5550    0.0000 O   0  0  0  0  0  0  0  0  0  0  0  0
    1.6500   -2.0000    0.0000 O   0  0  0  0  0  0  0  0  0  0  0  0
    6.0990    0.5190    0.0000 C   0  0  1  0  0  0  0  0  0  0  0  0
    6.0990   -0.3060    0.0000 C   0  0  2  0  0  0  0  0  0  0  0  0
    5.3850   -0.7190    0.0000 C   0  0  1  0  0  0  0  0  0  0  0  0
    4.6700   -0.3060    0.0000 C   0  0  2  0  0  0  0  0  0  0  0  0
    6.8800    0.7700    0.0000 C   0  0  2  0  0  0  0  0  0  0  0  0
    5.3850    0.9310    0.0000 C   0  0  0  0  0  0  0  0  0  0  0  0
    6.8800   -0.5580    0.0000 C   0  0  0  0  0  0  0  0  0  0  0  0
    4.6700    0.5190    0.0000 C   0  0  0  0  0  0  0  0  0  0  0  0
    3.9200   -0.7250    0.0000 C   0  0  2  0  0  0  0  0  0  0  0  0
    7.3610    0.1060    0.0000 C   0  0  0  0  0  0  0  0  0  0  0  0
    5.3980   -1.5780    0.0000 C   0  0  0  0  0  0  0  0  0  0  0  0
    6.0990    1.3440    0.0000 C   0  0  0  0  0  0  0  0  0  0  0  0
    4.6570   -2.0140    0.0000 C   0  0  0  0  0  0  0  0  0  0  0  0
    3.9130   -1.5840    0.0000 C   0  0  0  0  0  0  0  0  0  0  0  0
    3.1550   -0.2590    0.0000 C   0  0  0  0  0  0  0  0  0  0  0  0
    5.3850    1.7560    0.0000 C   0  0  0  0  0  0  0  0  0  0  0  0
    7.5480    1.2540    0.0000 C   0  0  0  0  0  0  0  0  0  0  0  0
    2.3730   -0.6950    0.0000 C   0  0  0  0  0  0  0  0  0  0  0  0
    3.1410   -2.0370    0.0000 C   0  0  0  0  0  0  0  0  0  0  0  0
    2.3660   -1.5900    0.0000 C   0  0  0  0  0  0  0  0  0  0  0  0
    8.2160    1.7380    0.0000 C   0  0  0  0  0  0  0  0  0  0  0  0
    6.1690   -0.9630    0.0000 H   0  0  0  0  0  0  0  0  0  0  0  0
    5.9590   -1.0440    0.0000 H   0  0  0  0  0  0  0  0  0  0  0  0
    5.2420    0.0240    0.0000 H   0  0  0  0  0  0  0  0  0  0  0  0
    3.9320   -0.0650    0.0000 H   0  0  0  0  0  0  0  0  0  0  0  0
  2 22  2  0  0  0  0
  3  4  1  0  0  0  0
  3  7  1  0  0  0  0
  3  8  1  0  0  0  0
  3 14  1  1  0  0  0
  4  5  1  0  0  0  0
  4  9  1  0  0  0  0
  4 24  1  6  0  0  0
  5  6  1  0  0  0  0
  5 13  1  0  0  0  0
  5 25  1  1  0  0  0
  6 10  1  0  0  0  0
  6 11  1  0  0  0  0
  6 26  1  6  0  0  0
  7  1  1  1  0  0  0
  7 12  1  0  0  0  0
  7 19  1  0  0  0  0
  8 10  1  0  0  0  0
  9 12  1  0  0  0  0
 11 16  1  0  0  0  0
 11 17  1  0  0  0  0
 11 27  1  1  0  0  0
 13 15  1  0  0  0  0
 14 18  1  0  0  0  0
 15 16  1  0  0  0  0
 16 21  2  0  0  0  0
 17 20  1  0  0  0  0
 19 23  3  0  0  0  0
 20 22  1  0  0  0  0
 21 22  1  0  0  0  0
M  END
>  <DATABASE_ID>
DB00367

>  <DATABASE_NAME>
drugbank

>  <SMILES>
O=C1CC[C@@H]2[C@@H]3[C@H]([C@@H]4CC[C@@](O)(C#C)[C@]4(CC3)CC)CCC2=C1

>  <INCHI_IDENTIFIER>
InChI=1S/C21H28O2/c1-3-20-11-9-17-16-8-6-15(22)13-14(16)5-7-18(17)19(20)10-12-21(20,23)4-2/h2,13,16-19,23H,3,5-12H2,1H3/t16-,17+,18+,19-,20-,21-/m0/s1

>  <INCHI_KEY>
InChIKey=WWYNJERNGUHSAO-XUDSTZEESA-N

>  <JCHEM_ACCEPTOR_COUNT>
2

>  <JCHEM_AVERAGE_POLARIZABILITY>
36.727917

>  <JCHEM_BIOAVAILABILITY>
1

>  <JCHEM_DONOR_COUNT>
1

>  <JCHEM_EXACT_MASS>
312.20892

>  <JCHEM_FORMAL_CHARGE>
0

>  <JCHEM_FORMULA>
C21H28O2

>  <JCHEM_GHOSE_FILTER>
1

>  <JCHEM_IUPAC>
(1S,2R,10R,11S,14R,15S)-15-ethyl-14-ethynyl-14-hydroxytetracyclo[8.7.0.0^{2,7}.0^{11,15}]heptadec-6-en-5-one

>  <ALOGPS_LOGP>
3.25

>  <JCHEM_LOGP>
3.6617966

>  <ALOGPS_LOGS>
-4.73

>  <JCHEM_MASS>
312.4458

>  <JCHEM_MDDR_LIKE_RULE>
0

>  <JCHEM_NUMBER_OF_RINGS>
4

>  <JCHEM_PHYSIOLOGICAL_CHARGE>
0

>  <JCHEM_PKA>
19.278172

>  <JCHEM_PKA_STRONGEST_ACIDIC>
17.90929

>  <JCHEM_PKA_STRONGEST_BASIC>
-1.5260035

>  <JCHEM_POLAR_SURFACE_AREA>
37.299999

>  <JCHEM_REFRACTIVITY>
92.025497

>  <JCHEM_ROTATABLE_BOND_COUNT>
1

>  <JCHEM_RULE_OF_FIVE>
1

>  <ALOGPS_SOLUBILITY>
5.83e-03 g/l

>  <JCHEM_TRADITIONAL_IUPAC>
levonorgestrel

>  <JCHEM_VEBER_RULE>
1

>  <DRUGBANK_ID>
DB00367

>  <DRUG_GROUPS>
approved; investigational

>  <GENERIC_NAME>
Levonorgestrel

>  <SYNONYMS>
(8R,9S,10R,13S,14S,17R)-13-ethyl-17-ethynyl-17-hydroxy- 1,2,6,7,8,9,10,11,12,13,14,15,16, 17- tetradecahydrocyclopenta[a] phenanthren-3-one; 18-Methylnorethisterone; d(-)-Norgestrel; Levonorgestrel; Lévonorgestrel; Levonorgestrelum

>  <BRANDS>
Jadelle; Levonelle; Medonor; Microlut; Microval; Mirena; Neogest; Next Choice; Norgeston; NorLevo; Norplant; Plan B; Postinor; Skyla

$$$$
Norepinephrine
 OpenBabel02121510022D

 12 12  0  0  1  0  0  0  0  0999 V2000
    2.8080    1.4440    0.0000 O   0  0  0  0  0  0  0  0  0  0  0  0
    2.0930   -1.4440    0.0000 O   0  0  0  0  0  0  0  0  0  0  0  0
    3.5220   -2.2690    0.0000 O   0  0  0  0  0  0  0  0  0  0  0  0
    4.2360    2.2690    0.0000 N   0  0  0  0  0  0  0  0  0  0  0  0
    3.5220    1.0310    0.0000 C   0  0  2  0  0  0  0  0  0  0  0  0
    3.5220    0.2060    0.0000 C   0  0  0  0  0  0  0  0  0  0  0  0
    4.2360    1.4440    0.0000 C   0  0  0  0  0  0  0  0  0  0  0  0
    2.8080   -0.2060    0.0000 C   0  0  0  0  0  0  0  0  0  0  0  0
    4.2360   -0.2060    0.0000 C   0  0  0  0  0  0  0  0  0  0  0  0
    2.8080   -1.0310    0.0000 C   0  0  0  0  0  0  0  0  0  0  0  0
    4.2360   -1.0310    0.0000 C   0  0  0  0  0  0  0  0  0  0  0  0
    3.5220   -1.4440    0.0000 C   0  0  0  0  0  0  0  0  0  0  0  0
  2 10  1  0  0  0  0
  3 12  1  0  0  0  0
  4  7  1  0  0  0  0
  5  1  1  1  0  0  0
  5  6  1  0  0  0  0
  5  7  1  0  0  0  0
  6  8  2  0  0  0  0
  6  9  1  0  0  0  0
  8 10  1  0  0  0  0
  9 11  2  0  0  0  0
 10 12  2  0  0  0  0
 11 12  1  0  0  0  0
M  END
>  <DATABASE_ID>
DB00368

>  <DATABASE_NAME>
drugbank

>  <SMILES>
Oc1cc(ccc1O)[C@@H](O)CN

>  <INCHI_IDENTIFIER>
InChI=1S/C8H11NO3/c9-4-8(12)5-1-2-6(10)7(11)3-5/h1-3,8,10-12H,4,9H2/t8-/m0/s1

>  <INCHI_KEY>
InChIKey=SFLSHLFXELFNJZ-QMMMGPOBSA-N

>  <JCHEM_ACCEPTOR_COUNT>
4

>  <JCHEM_AVERAGE_POLARIZABILITY>
16.958809

>  <JCHEM_BIOAVAILABILITY>
1

>  <JCHEM_DONOR_COUNT>
4

>  <JCHEM_EXACT_MASS>
169.0739

>  <JCHEM_FORMAL_CHARGE>
0

>  <JCHEM_FORMULA>
C8H11NO3

>  <JCHEM_GHOSE_FILTER>
0

>  <JCHEM_IUPAC>
4-[(1R)-2-amino-1-hydroxyethyl]benzene-1,2-diol

>  <ALOGPS_LOGP>
-1.4

>  <JCHEM_LOGP>
-0.6835134

>  <ALOGPS_LOGS>
-1.13

>  <JCHEM_MASS>
169.1778

>  <JCHEM_MDDR_LIKE_RULE>
0

>  <JCHEM_NUMBER_OF_RINGS>
1

>  <JCHEM_PHYSIOLOGICAL_CHARGE>
1

>  <JCHEM_PKA>
12.652757

>  <JCHEM_PKA_STRONGEST_ACIDIC>
9.500885

>  <JCHEM_PKA_STRONGEST_BASIC>
8.8484726

>  <JCHEM_POLAR_SURFACE_AREA>
86.709999

>  <JCHEM_REFRACTIVITY>
44.4557

>  <JCHEM_ROTATABLE_BOND_COUNT>
2

>  <JCHEM_RULE_OF_FIVE>
1

>  <ALOGPS_SOLUBILITY>
1.25e+01 g/l

>  <JCHEM_TRADITIONAL_IUPAC>
norepinephrine

>  <JCHEM_VEBER_RULE>
0

>  <DRUGBANK_ID>
DB00368

>  <DRUG_GROUPS>
approved

>  <GENERIC_NAME>
Norepinephrine

>  <BRANDS>
Levophed

$$$$
Mirtazapine
 OpenBabel02121510022D

 20 23  0  0  1  0  0  0  0  0999 V2000
    3.5990   -0.6300    0.0000 N   0  0  0  0  0  0  0  0  0  0  0  0
    2.2520   -1.5640    0.0000 N   0  0  0  0  0  0  0  0  0  0  0  0
    4.9080   -0.8560    0.0000 N   0  0  0  0  0  0  0  0  0  0  0  0
    2.8850   -0.2860    0.0000 C   0  0  3  0  0  0  0  0  0  0  0  0
    2.1960   -0.7400    0.0000 C   0  0  0  0  0  0  0  0  0  0  0  0
    3.6730   -1.4510    0.0000 C   0  0  0  0  0  0  0  0  0  0  0  0
    2.9950   -1.9210    0.0000 C   0  0  0  0  0  0  0  0  0  0  0  0
    2.7090    0.4860    0.0000 C   0  0  0  0  0  0  0  0  0  0  0  0
    4.3120   -0.2860    0.0000 C   0  0  0  0  0  0  0  0  0  0  0  0
    3.2030    1.1050    0.0000 C   0  0  0  0  0  0  0  0  0  0  0  0
    3.9950    1.1050    0.0000 C   0  0  0  0  0  0  0  0  0  0  0  0
    4.4890    0.4860    0.0000 C   0  0  0  0  0  0  0  0  0  0  0  0
    1.5960   -2.0070    0.0000 C   0  0  0  0  0  0  0  0  0  0  0  0
    1.8910    0.5960    0.0000 C   0  0  0  0  0  0  0  0  0  0  0  0
    2.9130    1.8780    0.0000 C   0  0  0  0  0  0  0  0  0  0  0  0
    5.2730    0.7410    0.0000 C   0  0  0  0  0  0  0  0  0  0  0  0
    1.5840    1.3620    0.0000 C   0  0  0  0  0  0  0  0  0  0  0  0
    2.0980    2.0070    0.0000 C   0  0  0  0  0  0  0  0  0  0  0  0
    5.8820    0.1850    0.0000 C   0  0  0  0  0  0  0  0  0  0  0  0
    5.6990   -0.6200    0.0000 C   0  0  0  0  0  0  0  0  0  0  0  0
  1  4  1  0  0  0  0
  1  6  1  0  0  0  0
  1  9  1  0  0  0  0
  2  5  1  0  0  0  0
  2  7  1  0  0  0  0
  2 13  1  0  0  0  0
  3  9  1  0  0  0  0
  3 20  2  0  0  0  0
  4  5  1  0  0  0  0
  4  8  1  0  0  0  0
  6  7  1  0  0  0  0
  8 10  2  0  0  0  0
  8 14  1  0  0  0  0
  9 12  2  0  0  0  0
 10 11  1  0  0  0  0
 10 15  1  0  0  0  0
 11 12  1  0  0  0  0
 12 16  1  0  0  0  0
 14 17  2  0  0  0  0
 15 18  2  0  0  0  0
 16 19  2  0  0  0  0
 17 18  1  0  0  0  0
 19 20  1  0  0  0  0
M  END
>  <DATABASE_ID>
DB00370

>  <DATABASE_NAME>
drugbank

>  <SMILES>
n1c2N3C(c4c(Cc2ccc1)cccc4)CN(CC3)C

>  <INCHI_IDENTIFIER>
InChI=1S/C17H19N3/c1-19-9-10-20-16(12-19)15-7-3-2-5-13(15)11-14-6-4-8-18-17(14)20/h2-8,16H,9-12H2,1H3

>  <INCHI_KEY>
InChIKey=RONZAEMNMFQXRA-UHFFFAOYSA-N

>  <JCHEM_ACCEPTOR_COUNT>
3

>  <JCHEM_AVERAGE_POLARIZABILITY>
30.350449

>  <JCHEM_BIOAVAILABILITY>
1

>  <JCHEM_DONOR_COUNT>
0

>  <JCHEM_EXACT_MASS>
265.1579

>  <JCHEM_FORMAL_CHARGE>
0

>  <JCHEM_FORMULA>
C17H19N3

>  <JCHEM_GHOSE_FILTER>
1

>  <JCHEM_IUPAC>
5-methyl-2,5,19-triazatetracyclo[13.4.0.0^{2,7}.0^{8,13}]nonadeca-1(19),8(13),9,11,15,17-hexaene

>  <ALOGPS_LOGP>
2.9000001

>  <JCHEM_LOGP>
3.2079828

>  <ALOGPS_LOGS>
-2.3800001

>  <JCHEM_MASS>
265.35291

>  <JCHEM_MDDR_LIKE_RULE>
0

>  <JCHEM_NUMBER_OF_RINGS>
4

>  <JCHEM_PHYSIOLOGICAL_CHARGE>
0

>  <JCHEM_PKA_STRONGEST_BASIC>
6.6682553

>  <JCHEM_POLAR_SURFACE_AREA>
19.370001

>  <JCHEM_REFRACTIVITY>
82.655296

>  <JCHEM_ROTATABLE_BOND_COUNT>
0

>  <JCHEM_RULE_OF_FIVE>
1

>  <ALOGPS_SOLUBILITY>
1.10e+00 g/l

>  <JCHEM_TRADITIONAL_IUPAC>
5-methyl-2,5,19-triazatetracyclo[13.4.0.0^{2,7}.0^{8,13}]nonadeca-1(19),8(13),9,11,15,17-hexaene

>  <JCHEM_VEBER_RULE>
1

>  <DRUGBANK_ID>
DB00370

>  <DRUG_GROUPS>
approved

>  <GENERIC_NAME>
Mirtazapine

>  <SYNONYMS>
6-Azamianserin; Mepirzapine; Mirtazapin; Mirtazapina; Mirtazapine; Mirtazapinum

>  <BRANDS>
Avanza; Axit; Mirtabene; Mirtaz; Mirtazon; Norset; Promyrtil; Remergil; Remergon; Remeron; Remeron SolTab; Rexer; Zispin

$$$$
Meprobamate
 OpenBabel02121510022D

 15 14  0  0  0  0  0  0  0  0999 V2000
    6.3800   -0.4530    0.0000 O   0  0  0  0  0  0  0  0  0  0  0  0
    3.5220   -0.4530    0.0000 O   0  0  0  0  0  0  0  0  0  0  0  0
    7.0940    0.7850    0.0000 O   0  0  0  0  0  0  0  0  0  0  0  0
    2.8080   -1.6900    0.0000 O   0  0  0  0  0  0  0  0  0  0  0  0
    7.8090   -0.4530    0.0000 N   0  0  0  0  0  0  0  0  0  0  0  0
    2.0930   -0.4530    0.0000 N   0  0  0  0  0  0  0  0  0  0  0  0
    4.9510   -0.4530    0.0000 C   0  0  0  0  0  0  0  0  0  0  0  0
    4.5380    0.2620    0.0000 C   0  0  0  0  0  0  0  0  0  0  0  0
    5.6660   -0.0400    0.0000 C   0  0  0  0  0  0  0  0  0  0  0  0
    4.2360   -0.8650    0.0000 C   0  0  0  0  0  0  0  0  0  0  0  0
    5.3630   -1.1680    0.0000 C   0  0  0  0  0  0  0  0  0  0  0  0
    4.9510    0.9760    0.0000 C   0  0  0  0  0  0  0  0  0  0  0  0
    4.5380    1.6900    0.0000 C   0  0  0  0  0  0  0  0  0  0  0  0
    7.0940   -0.0400    0.0000 C   0  0  0  0  0  0  0  0  0  0  0  0
    2.8080   -0.8650    0.0000 C   0  0  0  0  0  0  0  0  0  0  0  0
  1  9  1  0  0  0  0
  1 14  1  0  0  0  0
  2 10  1  0  0  0  0
  2 15  1  0  0  0  0
  3 14  2  0  0  0  0
  4 15  2  0  0  0  0
  5 14  1  0  0  0  0
  6 15  1  0  0  0  0
  7  8  1  0  0  0  0
  7  9  1  0  0  0  0
  7 10  1  0  0  0  0
  7 11  1  0  0  0  0
  8 12  1  0  0  0  0
 12 13  1  0  0  0  0
M  END
>  <DATABASE_ID>
DB00371

>  <DATABASE_NAME>
drugbank

>  <SMILES>
O(CC(CCC)(COC(=O)N)C)C(=O)N

>  <INCHI_IDENTIFIER>
InChI=1S/C9H18N2O4/c1-3-4-9(2,5-14-7(10)12)6-15-8(11)13/h3-6H2,1-2H3,(H2,10,12)(H2,11,13)

>  <INCHI_KEY>
InChIKey=NPPQSCRMBWNHMW-UHFFFAOYSA-N

>  <JCHEM_ACCEPTOR_COUNT>
2

>  <JCHEM_AVERAGE_POLARIZABILITY>
22.653084

>  <JCHEM_BIOAVAILABILITY>
1

>  <JCHEM_DONOR_COUNT>
2

>  <JCHEM_EXACT_MASS>
218.12666

>  <JCHEM_FORMAL_CHARGE>
0

>  <JCHEM_FORMULA>
C9H18N2O4

>  <JCHEM_GHOSE_FILTER>
1

>  <JCHEM_IUPAC>
2-[(carbamoyloxy)methyl]-2-methylpentyl carbamate

>  <ALOGPS_LOGP>
1.0599999

>  <JCHEM_LOGP>
0.92725289

>  <ALOGPS_LOGS>
-1.95

>  <JCHEM_MASS>
218.2502

>  <JCHEM_MDDR_LIKE_RULE>
0

>  <JCHEM_NUMBER_OF_RINGS>
0

>  <JCHEM_PHYSIOLOGICAL_CHARGE>
0

>  <JCHEM_PKA>
15.631145

>  <JCHEM_PKA_STRONGEST_ACIDIC>
15.171697

>  <JCHEM_POLAR_SURFACE_AREA>
104.64

>  <JCHEM_REFRACTIVITY>
53.036701

>  <JCHEM_ROTATABLE_BOND_COUNT>
8

>  <JCHEM_RULE_OF_FIVE>
1

>  <ALOGPS_SOLUBILITY>
2.47e+00 g/l

>  <JCHEM_TRADITIONAL_IUPAC>
meprobamate

>  <JCHEM_VEBER_RULE>
0

>  <DRUGBANK_ID>
DB00371

>  <DRUG_GROUPS>
approved; illicit

>  <GENERIC_NAME>
Meprobamate

>  <SYNONYMS>
Meprobamat; Meprobamato; Meprobamatum; Meprobamic acid

>  <BRANDS>
Equanil; Meprospan; Miltown

$$$$
Timolol
 OpenBabel02121510022D

 21 22  0  0  1  0  0  0  0  0999 V2000
    8.2100  -13.1300    0.0000 C   0  0  0  0  0  0  0  0  0  0  0  0
    9.0590  -13.1300    0.0000 C   0  0  0  0  0  0  0  0  0  0  0  0
    7.9750  -13.9320    0.0000 N   0  0  0  0  0  0  0  0  0  0  0  0
    9.2950  -13.9080    0.0000 N   0  0  0  0  0  0  0  0  0  0  0  0
    8.6350  -14.4030    0.0000 S   0  0  0  0  0  0  0  0  0  0  0  0
    7.7390  -12.4940    0.0000 N   0  0  0  0  0  0  0  0  0  0  0  0
    9.5070  -12.4230    0.0000 O   0  0  0  0  0  0  0  0  0  0  0  0
   11.9350  -11.0090    0.0000 N   0  0  0  0  0  0  0  0  0  0  0  0
    6.9140  -11.0800    0.0000 O   0  0  0  0  0  0  0  0  0  0  0  0
   10.7090  -11.7400    0.0000 C   0  0  3  0  0  0  0  0  0  0  0  0
   10.3320  -12.4230    0.0000 C   0  0  0  0  0  0  0  0  0  0  0  0
   11.5340  -11.7400    0.0000 C   0  0  0  0  0  0  0  0  0  0  0  0
    6.9140  -12.4940    0.0000 C   0  0  0  0  0  0  0  0  0  0  0  0
    8.1400  -11.7630    0.0000 C   0  0  0  0  0  0  0  0  0  0  0  0
   10.3320  -11.0090    0.0000 O   0  0  0  0  0  0  0  0  0  0  0  0
    7.7390  -11.0800    0.0000 C   0  0  0  0  0  0  0  0  0  0  0  0
    6.5130  -11.7870    0.0000 C   0  0  0  0  0  0  0  0  0  0  0  0
   12.7630  -11.0130    0.0000 C   0  0  0  0  0  0  0  0  0  0  0  0
   13.1790  -10.3010    0.0000 C   0  0  0  0  0  0  0  0  0  0  0  0
   13.1720  -11.7300    0.0000 C   0  0  0  0  0  0  0  0  0  0  0  0
   13.5880  -11.0130    0.0000 C   0  0  0  0  0  0  0  0  0  0  0  0
  1  2  1  0  0  0  0
  1  3  2  0  0  0  0
  1  6  1  0  0  0  0
  2  4  2  0  0  0  0
  2  7  1  0  0  0  0
  3  5  1  0  0  0  0
  4  5  1  0  0  0  0
  6 13  1  0  0  0  0
  6 14  1  0  0  0  0
  7 11  1  0  0  0  0
  8 12  1  0  0  0  0
  8 18  1  0  0  0  0
  9 16  1  0  0  0  0
  9 17  1  0  0  0  0
 10 11  1  0  0  0  0
 10 12  1  0  0  0  0
 10 15  1  0  0  0  0
 13 17  1  0  0  0  0
 14 16  1  0  0  0  0
 18 19  1  0  0  0  0
 18 20  1  0  0  0  0
 18 21  1  0  0  0  0
M  END
>  <DATABASE_ID>
DB00373

>  <DATABASE_NAME>
drugbank

>  <SMILES>
s1nc(N2CCOCC2)c(OCC(O)CNC(C)(C)C)n1

>  <INCHI_IDENTIFIER>
InChI=1S/C13H24N4O3S/c1-13(2,3)14-8-10(18)9-20-12-11(15-21-16-12)17-4-6-19-7-5-17/h10,14,18H,4-9H2,1-3H3

>  <INCHI_KEY>
InChIKey=BLJRIMJGRPQVNF-UHFFFAOYSA-N

>  <JCHEM_ACCEPTOR_COUNT>
7

>  <JCHEM_AVERAGE_POLARIZABILITY>
33.987999

>  <JCHEM_BIOAVAILABILITY>
1

>  <JCHEM_DONOR_COUNT>
2

>  <JCHEM_EXACT_MASS>
316.15692

>  <JCHEM_FORMAL_CHARGE>
0

>  <JCHEM_FORMULA>
C13H24N4O3S

>  <JCHEM_GHOSE_FILTER>
1

>  <JCHEM_IUPAC>
tert-butyl(2-hydroxy-3-{[4-(morpholin-4-yl)-1,2,5-thiadiazol-3-yl]oxy}propyl)amine

>  <ALOGPS_LOGP>
1.4400001

>  <JCHEM_LOGP>
1.335706

>  <ALOGPS_LOGS>
-3.0699999

>  <JCHEM_MASS>
316.42001

>  <JCHEM_MDDR_LIKE_RULE>
0

>  <JCHEM_NUMBER_OF_RINGS>
2

>  <JCHEM_PHYSIOLOGICAL_CHARGE>
1

>  <JCHEM_PKA_STRONGEST_ACIDIC>
14.084203

>  <JCHEM_PKA_STRONGEST_BASIC>
9.7594728

>  <JCHEM_POLAR_SURFACE_AREA>
79.739998

>  <JCHEM_REFRACTIVITY>
83.919998

>  <JCHEM_ROTATABLE_BOND_COUNT>
7

>  <JCHEM_RULE_OF_FIVE>
1

>  <ALOGPS_SOLUBILITY>
2.69e-01 g/l

>  <JCHEM_TRADITIONAL_IUPAC>
timolol

>  <JCHEM_VEBER_RULE>
0

>  <DRUGBANK_ID>
DB00373

>  <DRUG_GROUPS>
approved

>  <GENERIC_NAME>
Timolol

>  <SYNONYMS>
(S)-1-(tert-butylamino)-3-[(4-morpholin-4-yl-1,2,5-thiadiazol-3-yl)oxy]propan-2-ol; Timolol; Timololo; Timololum

>  <BRANDS>
Betimol; Blocadren; Istalol; Proflax; Tenopt; Timacar Depot; Timacor; Timoptic; Timoptic-XE; Timoptol

>  <SALTS>
Timolol hemihydrate; Timolol maleate

$$$$
Colestipol
 OpenBabel02121510022D

 18 17  0  0  1  0  0  0  0  0999 V2000
    3.3630    0.8040    0.0000 Cl  0  0  0  0  0  0  0  0  0  0  0  0
    5.2040    1.5190    0.0000 O   0  0  0  0  0  0  0  0  0  0  0  0
    4.7300    3.6800    0.0000 N   0  0  0  0  0  0  0  0  0  0  0  0
    6.8730    4.0930    0.0000 N   0  0  0  0  0  0  0  0  0  0  0  0
    2.5860    4.0930    0.0000 N   0  0  0  0  0  0  0  0  0  0  0  0
    9.0170    3.6800    0.0000 N   0  0  0  0  0  0  0  0  0  0  0  0
    0.4430    3.6800    0.0000 N   0  0  0  0  0  0  0  0  0  0  0  0
    4.7920    0.8040    0.0000 C   0  0  3  0  0  0  0  0  0  0  0  0
    5.6170    0.8040    0.0000 C   0  0  0  0  0  0  0  0  0  0  0  0
    4.0770    0.3920    0.0000 C   0  0  0  0  0  0  0  0  0  0  0  0
    5.4440    4.0930    0.0000 C   0  0  0  0  0  0  0  0  0  0  0  0
    4.0150    4.0930    0.0000 C   0  0  0  0  0  0  0  0  0  0  0  0
    6.1590    3.6800    0.0000 C   0  0  0  0  0  0  0  0  0  0  0  0
    3.3010    3.6800    0.0000 C   0  0  0  0  0  0  0  0  0  0  0  0
    7.5880    3.6800    0.0000 C   0  0  0  0  0  0  0  0  0  0  0  0
    1.8720    3.6800    0.0000 C   0  0  0  0  0  0  0  0  0  0  0  0
    8.3020    4.0930    0.0000 C   0  0  0  0  0  0  0  0  0  0  0  0
    1.1580    4.0930    0.0000 C   0  0  0  0  0  0  0  0  0  0  0  0
  1 10  1  0  0  0  0
  2  8  1  0  0  0  0
  2  9  1  0  0  0  0
  3 11  1  0  0  0  0
  3 12  1  0  0  0  0
  4 13  1  0  0  0  0
  4 15  1  0  0  0  0
  5 14  1  0  0  0  0
  5 16  1  0  0  0  0
  6 17  1  0  0  0  0
  7 18  1  0  0  0  0
  8  9  1  0  0  0  0
  8 10  1  0  0  0  0
 11 13  1  0  0  0  0
 12 14  1  0  0  0  0
 15 17  1  0  0  0  0
 16 18  1  0  0  0  0
M  END
>  <DATABASE_ID>
DB00375

>  <DATABASE_NAME>
drugbank

>  <SMILES>
ClCC1OC1.N(CCNCCN)CCNCCN

>  <INCHI_IDENTIFIER>
InChI=1S/C8H23N5.C3H5ClO/c9-1-3-11-5-7-13-8-6-12-4-2-10;4-1-3-2-5-3/h11-13H,1-10H2;3H,1-2H2

>  <INCHI_KEY>
InChIKey=GMRWGQCZJGVHKL-UHFFFAOYSA-N

>  <JCHEM_ACCEPTOR_COUNT>
5

>  <JCHEM_AVERAGE_POLARIZABILITY>
23.970036

>  <JCHEM_BIOAVAILABILITY>
1

>  <JCHEM_DONOR_COUNT>
5

>  <JCHEM_EXACT_MASS>
281.19824

>  <JCHEM_FORMAL_CHARGE>
0

>  <JCHEM_FORMULA>
C11H28ClN5O

>  <JCHEM_GHOSE_FILTER>
0

>  <JCHEM_IUPAC>
(2-aminoethyl)[2-({2-[(2-aminoethyl)amino]ethyl}amino)ethyl]amine; 2-(chloromethyl)oxirane

>  <JCHEM_LOGP>
-2.5156529

>  <JCHEM_MASS>
281.82599

>  <JCHEM_MDDR_LIKE_RULE>
0

>  <JCHEM_NUMBER_OF_RINGS>
1

>  <JCHEM_PHYSIOLOGICAL_CHARGE>
3

>  <JCHEM_PKA_STRONGEST_BASIC>
9.8144808

>  <JCHEM_POLAR_SURFACE_AREA>
88.129997

>  <JCHEM_REFRACTIVITY>
56.041801

>  <JCHEM_ROTATABLE_BOND_COUNT>
11

>  <JCHEM_RULE_OF_FIVE>
1

>  <JCHEM_TRADITIONAL_IUPAC>
epichlorohydrin; tetraethylenepentamine

>  <JCHEM_VEBER_RULE>
0

>  <DRUGBANK_ID>
DB00375

>  <DRUG_GROUPS>
approved

>  <GENERIC_NAME>
Colestipol

>  <SYNONYMS>
Colestipolum; Copolymer of bis(2-aminoethyl)amine and 2-(chloromethyl)oxirane

>  <BRANDS>
Cholestabyl; Colestid; Colestipol Hydrochloride; Lestid

>  <SALTS>
Colestipol Hydrochloride

$$$$
Trihexyphenidyl
 OpenBabel02121510022D

 22 24  0  0  1  0  0  0  0  0999 V2000
    1.9060    0.0000    0.0000 O   0  0  0  0  0  0  0  0  0  0  0  0
    4.7930   -0.7140    0.0000 N   0  0  0  0  0  0  0  0  0  0  0  0
    2.7310    0.8250    0.0000 C   0  0  0  0  0  0  0  0  0  0  0  0
    2.7310    0.0000    0.0000 C   0  0  3  0  0  0  0  0  0  0  0  0
    3.4450    1.2380    0.0000 C   0  0  0  0  0  0  0  0  0  0  0  0
    2.0160    1.2380    0.0000 C   0  0  0  0  0  0  0  0  0  0  0  0
    3.5560    0.0000    0.0000 C   0  0  0  0  0  0  0  0  0  0  0  0
    3.4450    2.0620    0.0000 C   0  0  0  0  0  0  0  0  0  0  0  0
    2.0160    2.0620    0.0000 C   0  0  0  0  0  0  0  0  0  0  0  0
    2.7310    2.4750    0.0000 C   0  0  0  0  0  0  0  0  0  0  0  0
    3.9680   -0.7140    0.0000 C   0  0  0  0  0  0  0  0  0  0  0  0
    2.7310   -0.8250    0.0000 C   0  0  0  0  0  0  0  0  0  0  0  0
    5.2060   -1.4290    0.0000 C   0  0  0  0  0  0  0  0  0  0  0  0
    5.2060    0.0000    0.0000 C   0  0  0  0  0  0  0  0  0  0  0  0
    6.0310   -1.4290    0.0000 C   0  0  0  0  0  0  0  0  0  0  0  0
    6.0310    0.0000    0.0000 C   0  0  0  0  0  0  0  0  0  0  0  0
    6.4430   -0.7140    0.0000 C   0  0  0  0  0  0  0  0  0  0  0  0
    3.4450   -1.2380    0.0000 C   0  0  0  0  0  0  0  0  0  0  0  0
    2.0160   -1.2380    0.0000 C   0  0  0  0  0  0  0  0  0  0  0  0
    3.4450   -2.0620    0.0000 C   0  0  0  0  0  0  0  0  0  0  0  0
    2.0160   -2.0620    0.0000 C   0  0  0  0  0  0  0  0  0  0  0  0
    2.7310   -2.4750    0.0000 C   0  0  0  0  0  0  0  0  0  0  0  0
  1  4  1  0  0  0  0
  2 11  1  0  0  0  0
  2 13  1  0  0  0  0
  2 14  1  0  0  0  0
  3  4  1  0  0  0  0
  3  5  1  0  0  0  0
  3  6  1  0  0  0  0
  4  7  1  0  0  0  0
  4 12  1  0  0  0  0
  5  8  1  0  0  0  0
  6  9  1  0  0  0  0
  7 11  1  0  0  0  0
  8 10  1  0  0  0  0
  9 10  1  0  0  0  0
 12 18  2  0  0  0  0
 12 19  1  0  0  0  0
 13 15  1  0  0  0  0
 14 16  1  0  0  0  0
 15 17  1  0  0  0  0
 16 17  1  0  0  0  0
 18 20  1  0  0  0  0
 19 21  2  0  0  0  0
 20 22  2  0  0  0  0
 21 22  1  0  0  0  0
M  END
>  <DATABASE_ID>
DB00376

>  <DATABASE_NAME>
drugbank

>  <SMILES>
OC(CCN1CCCCC1)(C1CCCCC1)c1ccccc1

>  <INCHI_IDENTIFIER>
InChI=1S/C20H31NO/c22-20(18-10-4-1-5-11-18,19-12-6-2-7-13-19)14-17-21-15-8-3-9-16-21/h1,4-5,10-11,19,22H,2-3,6-9,12-17H2

>  <INCHI_KEY>
InChIKey=HWHLPVGTWGOCJO-UHFFFAOYSA-N

>  <JCHEM_ACCEPTOR_COUNT>
2

>  <JCHEM_AVERAGE_POLARIZABILITY>
36.727131

>  <JCHEM_BIOAVAILABILITY>
1

>  <JCHEM_DONOR_COUNT>
1

>  <JCHEM_EXACT_MASS>
301.24057

>  <JCHEM_FORMAL_CHARGE>
0

>  <JCHEM_FORMULA>
C20H31NO

>  <JCHEM_GHOSE_FILTER>
1

>  <JCHEM_IUPAC>
1-cyclohexyl-1-phenyl-3-(piperidin-1-yl)propan-1-ol

>  <ALOGPS_LOGP>
4.9299998

>  <JCHEM_LOGP>
4.2326856

>  <ALOGPS_LOGS>
-4.98

>  <JCHEM_MASS>
301.46619

>  <JCHEM_MDDR_LIKE_RULE>
0

>  <JCHEM_NUMBER_OF_RINGS>
3

>  <JCHEM_PHYSIOLOGICAL_CHARGE>
1

>  <JCHEM_PKA_STRONGEST_ACIDIC>
13.84003

>  <JCHEM_PKA_STRONGEST_BASIC>
9.3224506

>  <JCHEM_POLAR_SURFACE_AREA>
23.469999

>  <JCHEM_REFRACTIVITY>
93.2052

>  <JCHEM_ROTATABLE_BOND_COUNT>
5

>  <JCHEM_RULE_OF_FIVE>
1

>  <ALOGPS_SOLUBILITY>
3.14e-03 g/l

>  <JCHEM_TRADITIONAL_IUPAC>
trihexyphenidyl

>  <JCHEM_VEBER_RULE>
1

>  <DRUGBANK_ID>
DB00376

>  <DRUG_GROUPS>
approved

>  <GENERIC_NAME>
Trihexyphenidyl

>  <SYNONYMS>
(RS)-1-cyclohexyl-1-phenyl-3-(1-piperidyl)propan-1-ol; Benzhexol Hydrochloride; Trihexifenidilo; Trihexyphenidyl; Trihexyphénidyle; Trihexyphenidylum

>  <BRANDS>
ACA; Acamed; Altant; Artane; Artine; Atan; Benzhexol; Benzox; Bexol; Broflex; Cyclodol; Dyskinil; Ea Ten; Hexymer; Hipokinon; Lahexy; Pacitane; Pakisonal; Parales; Parcisol; Pargitan; Parkin; Parkinane; Parkines; Parkinidyl; Parkisan; Parkitane; Parkizol; Tonaril

>  <SALTS>
Trihexyphenidyl Hydrochloride

$$$$
Dydrogesterone
 OpenBabel02121510022D

 26 29  0  0  1  0  0  0  0  0999 V2000
    6.5850    2.1030    0.0000 O   0  0  0  0  0  0  0  0  0  0  0  0
    1.6500   -2.0650    0.0000 O   0  0  0  0  0  0  0  0  0  0  0  0
    6.0990    0.4530    0.0000 C   0  0  1  0  0  0  0  0  0  0  0  0
    6.0990   -0.3720    0.0000 C   0  0  2  0  0  0  0  0  0  0  0  0
    5.3850   -0.7840    0.0000 C   0  0  1  0  0  0  0  0  0  0  0  0
    4.6700   -0.3720    0.0000 C   0  0  1  0  0  0  0  0  0  0  0  0
    6.8800    0.7050    0.0000 C   0  0  2  0  0  0  0  0  0  0  0  0
    5.3850    0.8660    0.0000 C   0  0  0  0  0  0  0  0  0  0  0  0
    6.8800   -0.6230    0.0000 C   0  0  0  0  0  0  0  0  0  0  0  0
    4.6700    0.4530    0.0000 C   0  0  0  0  0  0  0  0  0  0  0  0
    3.9190   -0.7900    0.0000 C   0  0  1  0  0  0  0  0  0  0  0  0
    7.3610    0.0410    0.0000 C   0  0  0  0  0  0  0  0  0  0  0  0
    6.0990    1.2780    0.0000 C   0  0  0  0  0  0  0  0  0  0  0  0
    5.3980   -1.6440    0.0000 C   0  0  0  0  0  0  0  0  0  0  0  0
    3.9130   -1.6490    0.0000 C   0  0  0  0  0  0  0  0  0  0  0  0
    3.1550   -0.3250    0.0000 C   0  0  0  0  0  0  0  0  0  0  0  0
    7.1360    1.4890    0.0000 C   0  0  0  0  0  0  0  0  0  0  0  0
    3.9260    0.0350    0.0000 C   0  0  0  0  0  0  0  0  0  0  0  0
    4.6570   -2.0790    0.0000 C   0  0  0  0  0  0  0  0  0  0  0  0
    2.3730   -0.7600    0.0000 C   0  0  0  0  0  0  0  0  0  0  0  0
    3.1410   -2.1030    0.0000 C   0  0  0  0  0  0  0  0  0  0  0  0
    2.3660   -1.6550    0.0000 C   0  0  0  0  0  0  0  0  0  0  0  0
    7.9430    1.6590    0.0000 C   0  0  0  0  0  0  0  0  0  0  0  0
    6.1690   -1.0280    0.0000 H   0  0  0  0  0  0  0  0  0  0  0  0
    5.9580   -1.1100    0.0000 H   0  0  0  0  0  0  0  0  0  0  0  0
    5.2420   -0.0420    0.0000 H   0  0  0  0  0  0  0  0  0  0  0  0
  1 17  2  0  0  0  0
  2 22  2  0  0  0  0
  3  4  1  0  0  0  0
  3  7  1  0  0  0  0
  3  8  1  0  0  0  0
  3 13  1  1  0  0  0
  4  5  1  0  0  0  0
  4  9  1  0  0  0  0
  4 24  1  6  0  0  0
  5  6  1  0  0  0  0
  5 14  1  0  0  0  0
  5 25  1  1  0  0  0
  6 10  1  0  0  0  0
  6 11  1  0  0  0  0
  6 26  1  1  0  0  0
  7 12  1  0  0  0  0
  7 17  1  1  0  0  0
  8 10  1  0  0  0  0
  9 12  1  0  0  0  0
 11 15  1  0  0  0  0
 11 16  1  0  0  0  0
 11 18  1  6  0  0  0
 14 19  2  0  0  0  0
 15 19  1  0  0  0  0
 15 21  2  0  0  0  0
 16 20  1  0  0  0  0
 17 23  1  0  0  0  0
 20 22  1  0  0  0  0
 21 22  1  0  0  0  0
M  END
>  <DATABASE_ID>
DB00378

>  <DATABASE_NAME>
drugbank

>  <SMILES>
O=C1CC[C@]2([C@H]3[C@H]([C@@H]4CC[C@H](C(=O)C)[C@]4(CC3)C)C=CC2=C1)C

>  <INCHI_IDENTIFIER>
InChI=1S/C21H28O2/c1-13(22)17-6-7-18-16-5-4-14-12-15(23)8-10-20(14,2)19(16)9-11-21(17,18)3/h4-5,12,16-19H,6-11H2,1-3H3/t16-,17+,18-,19+,20+,21+/m0/s1

>  <INCHI_KEY>
InChIKey=JGMOKGBVKVMRFX-HQZYFCCVSA-N

>  <JCHEM_ACCEPTOR_COUNT>
2

>  <JCHEM_AVERAGE_POLARIZABILITY>
36.389065

>  <JCHEM_BIOAVAILABILITY>
1

>  <JCHEM_DONOR_COUNT>
0

>  <JCHEM_EXACT_MASS>
312.20892

>  <JCHEM_FORMAL_CHARGE>
0

>  <JCHEM_FORMULA>
C21H28O2

>  <JCHEM_GHOSE_FILTER>
1

>  <JCHEM_IUPAC>
(1R,2S,10S,11S,14S,15S)-14-acetyl-2,15-dimethyltetracyclo[8.7.0.0^{2,7}.0^{11,15}]heptadeca-6,8-dien-5-one

>  <ALOGPS_LOGP>
3.27

>  <JCHEM_LOGP>
3.7866828

>  <ALOGPS_LOGS>
-4.8099999

>  <JCHEM_MASS>
312.4458

>  <JCHEM_MDDR_LIKE_RULE>
0

>  <JCHEM_NUMBER_OF_RINGS>
4

>  <JCHEM_PHYSIOLOGICAL_CHARGE>
0

>  <JCHEM_PKA_STRONGEST_ACIDIC>
19.291891

>  <JCHEM_PKA_STRONGEST_BASIC>
-4.7726974

>  <JCHEM_POLAR_SURFACE_AREA>
34.139999

>  <JCHEM_REFRACTIVITY>
93.821899

>  <JCHEM_ROTATABLE_BOND_COUNT>
1

>  <JCHEM_RULE_OF_FIVE>
1

>  <ALOGPS_SOLUBILITY>
4.86e-03 g/l

>  <JCHEM_TRADITIONAL_IUPAC>
dydrogesterone

>  <JCHEM_VEBER_RULE>
1

>  <DRUGBANK_ID>
DB00378

>  <DRUG_GROUPS>
approved; withdrawn

>  <GENERIC_NAME>
Dydrogesterone

>  <SYNONYMS>
(9β,10α)-pregna-4,6-diene-3,20-dione; 10alpha-Isopregnenone; 9β,10α-pregna-4,6-diene-3,20-dione; Didrogesterone; Dydrogesterona; Dydrogestérone ; Dydrogesterone; Dydrogesteronum; Gestatron; Hydrogesterone; Hydrogestrone; Isopregnenone

>  <BRANDS>
Dabroston; Dufaston; Duphaston; Terolut

$$$$
Mexiletine
 OpenBabel02121510022D

 13 13  0  0  1  0  0  0  0  0999 V2000
    3.0790    0.1570    0.0000 O   0  0  0  0  0  0  0  0  0  0  0  0
    4.5080    1.8070    0.0000 N   0  0  0  0  0  0  0  0  0  0  0  0
    3.7940    1.3940    0.0000 C   0  0  3  0  0  0  0  0  0  0  0  0
    3.7940    0.5690    0.0000 C   0  0  0  0  0  0  0  0  0  0  0  0
    3.0790   -0.6680    0.0000 C   0  0  0  0  0  0  0  0  0  0  0  0
    3.7940   -1.0810    0.0000 C   0  0  0  0  0  0  0  0  0  0  0  0
    2.3640   -1.0810    0.0000 C   0  0  0  0  0  0  0  0  0  0  0  0
    3.0790    1.8070    0.0000 C   0  0  0  0  0  0  0  0  0  0  0  0
    3.7940   -1.9060    0.0000 C   0  0  0  0  0  0  0  0  0  0  0  0
    2.3640   -1.9060    0.0000 C   0  0  0  0  0  0  0  0  0  0  0  0
    3.0790   -2.3180    0.0000 C   0  0  0  0  0  0  0  0  0  0  0  0
    4.5080   -0.6680    0.0000 C   0  0  0  0  0  0  0  0  0  0  0  0
    1.6500   -0.6680    0.0000 C   0  0  0  0  0  0  0  0  0  0  0  0
  1  4  1  0  0  0  0
  1  5  1  0  0  0  0
  2  3  1  0  0  0  0
  3  4  1  0  0  0  0
  3  8  1  0  0  0  0
  5  6  2  0  0  0  0
  5  7  1  0  0  0  0
  6  9  1  0  0  0  0
  6 12  1  0  0  0  0
  7 10  2  0  0  0  0
  7 13  1  0  0  0  0
  9 11  2  0  0  0  0
 10 11  1  0  0  0  0
M  END
>  <DATABASE_ID>
DB00379

>  <DATABASE_NAME>
drugbank

>  <SMILES>
O(CC(N)C)c1c(cccc1C)C

>  <INCHI_IDENTIFIER>
InChI=1S/C11H17NO/c1-8-5-4-6-9(2)11(8)13-7-10(3)12/h4-6,10H,7,12H2,1-3H3

>  <INCHI_KEY>
InChIKey=VLPIATFUUWWMKC-UHFFFAOYSA-N

>  <JCHEM_ACCEPTOR_COUNT>
2

>  <JCHEM_AVERAGE_POLARIZABILITY>
21.171053

>  <JCHEM_BIOAVAILABILITY>
1

>  <JCHEM_DONOR_COUNT>
1

>  <JCHEM_EXACT_MASS>
179.13101

>  <JCHEM_FORMAL_CHARGE>
0

>  <JCHEM_FORMULA>
C11H17NO

>  <JCHEM_GHOSE_FILTER>
1

>  <JCHEM_IUPAC>
2-(2-aminopropoxy)-1,3-dimethylbenzene

>  <ALOGPS_LOGP>
2.1700001

>  <JCHEM_LOGP>
2.4620085

>  <ALOGPS_LOGS>
-2.52

>  <JCHEM_MASS>
179.2588

>  <JCHEM_MDDR_LIKE_RULE>
0

>  <JCHEM_NUMBER_OF_RINGS>
1

>  <JCHEM_PHYSIOLOGICAL_CHARGE>
1

>  <JCHEM_PKA_STRONGEST_BASIC>
9.5181503

>  <JCHEM_POLAR_SURFACE_AREA>
35.25

>  <JCHEM_REFRACTIVITY>
54.972198

>  <JCHEM_ROTATABLE_BOND_COUNT>
3

>  <JCHEM_RULE_OF_FIVE>
1

>  <ALOGPS_SOLUBILITY>
5.38e-01 g/l

>  <JCHEM_TRADITIONAL_IUPAC>
mexiletine

>  <JCHEM_VEBER_RULE>
1

>  <DRUGBANK_ID>
DB00379

>  <DRUG_GROUPS>
approved

>  <GENERIC_NAME>
Mexiletine

>  <SYNONYMS>
Mexiletina; Mexilétine; Mexiletinum

>  <BRANDS>
Cirumimeru; Mekiratin; Melate; Meldest; Meletin; Mequitolide; Metorekicin; Mexicord; Mexitil; Mexitilen; Minsetil; Mobalen; Mugadine; Novo-Mexiletine; Olzoron; Poeruten; Ritalmex; Teva-Mexiletine; Toi; Tumetil

>  <SALTS>
Mexiletine Hydrochloride

$$$$
Amlodipine
 OpenBabel02121510022D

 28 29  0  0  1  0  0  0  0  0999 V2000
    6.7500    2.4620    0.0000 Cl  0  0  0  0  0  0  0  0  0  0  0  0
    3.7940   -1.3940    0.0000 O   0  0  0  0  0  0  0  0  0  0  0  0
    3.0790    0.6680    0.0000 O   0  0  0  0  0  0  0  0  0  0  0  0
    7.3660    0.6680    0.0000 O   0  0  0  0  0  0  0  0  0  0  0  0
    3.7940    1.9060    0.0000 O   0  0  0  0  0  0  0  0  0  0  0  0
    7.1820    1.7130    0.0000 O   0  0  0  0  0  0  0  0  0  0  0  0
    5.2220   -0.5690    0.0000 N   0  0  0  0  0  0  0  0  0  0  0  0
    2.3640   -3.0440    0.0000 N   0  0  0  0  0  0  0  0  0  0  0  0
    5.2220    1.0810    0.0000 C   0  0  3  0  0  0  0  0  0  0  0  0
    4.5080    0.6680    0.0000 C   0  0  0  0  0  0  0  0  0  0  0  0
    5.9370    0.6680    0.0000 C   0  0  0  0  0  0  0  0  0  0  0  0
    4.5080   -0.1570    0.0000 C   0  0  0  0  0  0  0  0  0  0  0  0
    5.9370   -0.1570    0.0000 C   0  0  0  0  0  0  0  0  0  0  0  0
    5.2220    1.9060    0.0000 C   0  0  0  0  0  0  0  0  0  0  0  0
    3.7940   -0.5690    0.0000 C   0  0  0  0  0  0  0  0  0  0  0  0
    3.7940    1.0810    0.0000 C   0  0  0  0  0  0  0  0  0  0  0  0
    6.6520   -0.5690    0.0000 C   0  0  0  0  0  0  0  0  0  0  0  0
    6.6520    1.0810    0.0000 C   0  0  0  0  0  0  0  0  0  0  0  0
    5.9370    2.3180    0.0000 C   0  0  0  0  0  0  0  0  0  0  0  0
    4.5080    2.3180    0.0000 C   0  0  0  0  0  0  0  0  0  0  0  0
    5.9370    3.1430    0.0000 C   0  0  0  0  0  0  0  0  0  0  0  0
    4.5080    3.1430    0.0000 C   0  0  0  0  0  0  0  0  0  0  0  0
    5.2220    3.5560    0.0000 C   0  0  0  0  0  0  0  0  0  0  0  0
    3.0790   -1.8070    0.0000 C   0  0  0  0  0  0  0  0  0  0  0  0
    2.3640    1.0810    0.0000 C   0  0  0  0  0  0  0  0  0  0  0  0
    3.0790   -2.6320    0.0000 C   0  0  0  0  0  0  0  0  0  0  0  0
    8.0800    1.0810    0.0000 C   0  0  0  0  0  0  0  0  0  0  0  0
    1.6500    0.6680    0.0000 C   0  0  0  0  0  0  0  0  0  0  0  0
  1 19  1  0  0  0  0
  2 15  1  0  0  0  0
  2 24  1  0  0  0  0
  3 16  1  0  0  0  0
  3 25  1  0  0  0  0
  4 18  1  0  0  0  0
  4 27  1  0  0  0  0
  5 16  2  0  0  0  0
  6 18  2  0  0  0  0
  7 12  1  0  0  0  0
  7 13  1  0  0  0  0
  8 26  1  0  0  0  0
  9 10  1  0  0  0  0
  9 11  1  0  0  0  0
  9 14  1  0  0  0  0
 10 12  2  0  0  0  0
 10 16  1  0  0  0  0
 11 13  2  0  0  0  0
 11 18  1  0  0  0  0
 12 15  1  0  0  0  0
 13 17  1  0  0  0  0
 14 19  2  0  0  0  0
 14 20  1  0  0  0  0
 19 21  1  0  0  0  0
 20 22  2  0  0  0  0
 21 23  2  0  0  0  0
 22 23  1  0  0  0  0
 24 26  1  0  0  0  0
 25 28  1  0  0  0  0
M  END
>  <DATABASE_ID>
DB00381

>  <DATABASE_NAME>
drugbank

>  <SMILES>
Clc1ccccc1C1C(C(OCC)=O)=C(NC(C)=C1C(OC)=O)COCCN

>  <INCHI_IDENTIFIER>
InChI=1S/C20H25ClN2O5/c1-4-28-20(25)18-15(11-27-10-9-22)23-12(2)16(19(24)26-3)17(18)13-7-5-6-8-14(13)21/h5-8,17,23H,4,9-11,22H2,1-3H3

>  <INCHI_KEY>
InChIKey=HTIQEAQVCYTUBX-UHFFFAOYSA-N

>  <JCHEM_ACCEPTOR_COUNT>
5

>  <JCHEM_AVERAGE_POLARIZABILITY>
42.293056

>  <JCHEM_BIOAVAILABILITY>
1

>  <JCHEM_DONOR_COUNT>
2

>  <JCHEM_EXACT_MASS>
408.1452

>  <JCHEM_FORMAL_CHARGE>
0

>  <JCHEM_FORMULA>
C20H25ClN2O5

>  <JCHEM_GHOSE_FILTER>
1

>  <JCHEM_IUPAC>
3-ethyl 5-methyl 2-[(2-aminoethoxy)methyl]-4-(2-chlorophenyl)-6-methyl-1,4-dihydropyridine-3,5-dicarboxylate

>  <ALOGPS_LOGP>
2.22

>  <JCHEM_LOGP>
1.6355954

>  <ALOGPS_LOGS>
-4.7399998

>  <JCHEM_MASS>
408.87601

>  <JCHEM_MDDR_LIKE_RULE>
0

>  <JCHEM_NUMBER_OF_RINGS>
2

>  <JCHEM_PHYSIOLOGICAL_CHARGE>
1

>  <JCHEM_PKA_STRONGEST_BASIC>
9.4456491

>  <JCHEM_POLAR_SURFACE_AREA>
99.879997

>  <JCHEM_REFRACTIVITY>
108.6381

>  <JCHEM_ROTATABLE_BOND_COUNT>
10

>  <JCHEM_RULE_OF_FIVE>
1

>  <ALOGPS_SOLUBILITY>
7.40e-03 g/l

>  <JCHEM_TRADITIONAL_IUPAC>
amlodipine

>  <JCHEM_VEBER_RULE>
0

>  <DRUGBANK_ID>
DB00381

>  <DRUG_GROUPS>
approved

>  <GENERIC_NAME>
Amlodipine

>  <SYNONYMS>
(RS)-3-ethyl 5-methyl 2-[(2-aminoethoxy)methyl]-4-(2-chlorophenyl)-6-methyl-1,4-dihydropyridine-3,5-dicarboxylate; 3-Ethyl 5-methylester, (±)-2-[(2-aminoethoxy)methyl]-4-(o-chlorophenyl)-1,4-dihydro-6-methyl-3,5-pyridinedicarboxylate; Amlodipine; Amlodipino; Amlodipinum

>  <BRANDS>
Aforbes; Agen; Aken; Amcard; Amdepin; Amdipin; Amlocard; Amlod; Amlodine; Amlodipin; Amlodipin-Mepha 5/10; Amlodipine 5; Amlodis; Amlong; Amlopin; Amlopine; Amlostin; Amlosun; Amlovas; Amlovasc; Amlozek; Amvaz; Asomex; Atecard-AM; Camlodin; Coroval; Dailyvasc; Emadine; Istin; Lama; Lodip; Lodopin; Lopin; Nelod; Nopidin; Nordip; Norvasc; Perivasc; Pharex Amlodipine; Tenox

>  <SALTS>
Amlodipine Besilate; Amlodipine Besylate; Amlodipine Maleate

$$$$
Triamterene
 OpenBabel02121510022D

 19 21  0  0  0  0  0  0  0  0999 V2000
    4.5080   -0.4720    0.0000 N   0  0  0  0  0  0  0  0  0  0  0  0
    4.5080    1.1780    0.0000 N   0  0  0  0  0  0  0  0  0  0  0  0
    5.9600    1.2070    0.0000 N   0  0  0  0  0  0  0  0  0  0  0  0
    6.7070   -0.0770    0.0000 N   0  0  0  0  0  0  0  0  0  0  0  0
    3.0790    1.1780    0.0000 N   0  0  0  0  0  0  0  0  0  0  0  0
    5.9500   -1.3260    0.0000 N   0  0  0  0  0  0  0  0  0  0  0  0
    7.4200    1.1980    0.0000 N   0  0  0  0  0  0  0  0  0  0  0  0
    3.7930   -0.0600    0.0000 C   0  0  0  0  0  0  0  0  0  0  0  0
    5.2220   -0.0600    0.0000 C   0  0  0  0  0  0  0  0  0  0  0  0
    3.0790   -0.4720    0.0000 C   0  0  0  0  0  0  0  0  0  0  0  0
    5.2220    0.7660    0.0000 C   0  0  0  0  0  0  0  0  0  0  0  0
    3.7930    0.7660    0.0000 C   0  0  0  0  0  0  0  0  0  0  0  0
    5.9600   -0.5000    0.0000 C   0  0  0  0  0  0  0  0  0  0  0  0
    3.0790   -1.2970    0.0000 C   0  0  0  0  0  0  0  0  0  0  0  0
    2.3640   -0.0600    0.0000 C   0  0  0  0  0  0  0  0  0  0  0  0
    6.7070    0.7830    0.0000 C   0  0  0  0  0  0  0  0  0  0  0  0
    2.3640   -1.7100    0.0000 C   0  0  0  0  0  0  0  0  0  0  0  0
    1.6500   -0.4720    0.0000 C   0  0  0  0  0  0  0  0  0  0  0  0
    1.6500   -1.2970    0.0000 C   0  0  0  0  0  0  0  0  0  0  0  0
  1  8  1  0  0  0  0
  1  9  2  0  0  0  0
  2 11  2  0  0  0  0
  2 12  1  0  0  0  0
  3 11  1  0  0  0  0
  3 16  2  0  0  0  0
  4 13  2  0  0  0  0
  4 16  1  0  0  0  0
  5 12  1  0  0  0  0
  6 13  1  0  0  0  0
  7 16  1  0  0  0  0
  8 10  1  0  0  0  0
  8 12  2  0  0  0  0
  9 11  1  0  0  0  0
  9 13  1  0  0  0  0
 10 14  2  0  0  0  0
 10 15  1  0  0  0  0
 14 17  1  0  0  0  0
 15 18  2  0  0  0  0
 17 19  2  0  0  0  0
 18 19  1  0  0  0  0
M  END
>  <DATABASE_ID>
DB00384

>  <DATABASE_NAME>
drugbank

>  <SMILES>
n1c(N)c2nc(-c3ccccc3)c(nc2nc1N)N

>  <INCHI_IDENTIFIER>
InChI=1S/C12H11N7/c13-9-7(6-4-2-1-3-5-6)16-8-10(14)18-12(15)19-11(8)17-9/h1-5H,(H6,13,14,15,17,18,19)

>  <INCHI_KEY>
InChIKey=FNYLWPVRPXGIIP-UHFFFAOYSA-N

>  <JCHEM_ACCEPTOR_COUNT>
7

>  <JCHEM_AVERAGE_POLARIZABILITY>
25.902157

>  <JCHEM_BIOAVAILABILITY>
1

>  <JCHEM_DONOR_COUNT>
3

>  <JCHEM_EXACT_MASS>
253.10759

>  <JCHEM_FORMAL_CHARGE>
0

>  <JCHEM_FORMULA>
C12H11N7

>  <JCHEM_GHOSE_FILTER>
1

>  <JCHEM_IUPAC>
6-phenylpteridine-2,4,7-triamine

>  <ALOGPS_LOGP>
1.21

>  <JCHEM_LOGP>
1.1145715

>  <ALOGPS_LOGS>
-2.4200001

>  <JCHEM_MASS>
253.2626

>  <JCHEM_MDDR_LIKE_RULE>
0

>  <JCHEM_NUMBER_OF_RINGS>
3

>  <JCHEM_PHYSIOLOGICAL_CHARGE>
0

>  <JCHEM_PKA>
18.534157

>  <JCHEM_PKA_STRONGEST_ACIDIC>
15.876225

>  <JCHEM_PKA_STRONGEST_BASIC>
3.1066608

>  <JCHEM_POLAR_SURFACE_AREA>
129.62

>  <JCHEM_REFRACTIVITY>
75.1259

>  <JCHEM_ROTATABLE_BOND_COUNT>
1

>  <JCHEM_RULE_OF_FIVE>
1

>  <ALOGPS_SOLUBILITY>
9.63e-01 g/l

>  <JCHEM_TRADITIONAL_IUPAC>
triamterene

>  <JCHEM_VEBER_RULE>
0

>  <DRUGBANK_ID>
DB00384

>  <DRUG_GROUPS>
approved

>  <GENERIC_NAME>
Triamterene

>  <SYNONYMS>
6-phenylpteridine-2,4,7-triamine; Teridin; Triamteren; Triamtérène; Triamterene; Triamtereno; Triamterenum

>  <BRANDS>
Diuteren; Dyazide; Dyrenium; Dytac; Riyazine; Triteren; Urinis

$$$$
Procyclidine
 OpenBabel02121510022D

 21 23  0  0  1  0  0  0  0  0999 V2000
    1.9060    0.0000    0.0000 O   0  0  0  0  0  0  0  0  0  0  0  0
    4.7930   -0.7140    0.0000 N   0  0  0  0  0  0  0  0  0  0  0  0
    2.7310    0.8250    0.0000 C   0  0  0  0  0  0  0  0  0  0  0  0
    2.7310    0.0000    0.0000 C   0  0  3  0  0  0  0  0  0  0  0  0
    3.4450    1.2380    0.0000 C   0  0  0  0  0  0  0  0  0  0  0  0
    2.0160    1.2380    0.0000 C   0  0  0  0  0  0  0  0  0  0  0  0
    3.5560    0.0000    0.0000 C   0  0  0  0  0  0  0  0  0  0  0  0
    3.4450    2.0620    0.0000 C   0  0  0  0  0  0  0  0  0  0  0  0
    2.0160    2.0620    0.0000 C   0  0  0  0  0  0  0  0  0  0  0  0
    2.7310    2.4750    0.0000 C   0  0  0  0  0  0  0  0  0  0  0  0
    3.9680   -0.7140    0.0000 C   0  0  0  0  0  0  0  0  0  0  0  0
    2.7310   -0.8250    0.0000 C   0  0  0  0  0  0  0  0  0  0  0  0
    5.2780   -0.0470    0.0000 C   0  0  0  0  0  0  0  0  0  0  0  0
    5.2780   -1.3820    0.0000 C   0  0  0  0  0  0  0  0  0  0  0  0
    6.0630   -0.3020    0.0000 C   0  0  0  0  0  0  0  0  0  0  0  0
    6.0630   -1.1270    0.0000 C   0  0  0  0  0  0  0  0  0  0  0  0
    3.4450   -1.2380    0.0000 C   0  0  0  0  0  0  0  0  0  0  0  0
    2.0160   -1.2380    0.0000 C   0  0  0  0  0  0  0  0  0  0  0  0
    3.4450   -2.0620    0.0000 C   0  0  0  0  0  0  0  0  0  0  0  0
    2.0160   -2.0620    0.0000 C   0  0  0  0  0  0  0  0  0  0  0  0
    2.7310   -2.4750    0.0000 C   0  0  0  0  0  0  0  0  0  0  0  0
  1  4  1  0  0  0  0
  2 11  1  0  0  0  0
  2 13  1  0  0  0  0
  2 14  1  0  0  0  0
  3  4  1  0  0  0  0
  3  5  1  0  0  0  0
  3  6  1  0  0  0  0
  4  7  1  0  0  0  0
  4 12  1  0  0  0  0
  5  8  1  0  0  0  0
  6  9  1  0  0  0  0
  7 11  1  0  0  0  0
  8 10  1  0  0  0  0
  9 10  1  0  0  0  0
 12 17  2  0  0  0  0
 12 18  1  0  0  0  0
 13 15  1  0  0  0  0
 14 16  1  0  0  0  0
 15 16  1  0  0  0  0
 17 19  1  0  0  0  0
 18 20  2  0  0  0  0
 19 21  2  0  0  0  0
 20 21  1  0  0  0  0
M  END
>  <DATABASE_ID>
DB00387

>  <DATABASE_NAME>
drugbank

>  <SMILES>
OC(CCN1CCCC1)(C1CCCCC1)c1ccccc1

>  <INCHI_IDENTIFIER>
InChI=1S/C19H29NO/c21-19(17-9-3-1-4-10-17,18-11-5-2-6-12-18)13-16-20-14-7-8-15-20/h1,3-4,9-10,18,21H,2,5-8,11-16H2

>  <INCHI_KEY>
InChIKey=WYDUSKDSKCASEF-UHFFFAOYSA-N

>  <JCHEM_ACCEPTOR_COUNT>
2

>  <JCHEM_AVERAGE_POLARIZABILITY>
34.434639

>  <JCHEM_BIOAVAILABILITY>
1

>  <JCHEM_DONOR_COUNT>
1

>  <JCHEM_EXACT_MASS>
287.22491

>  <JCHEM_FORMAL_CHARGE>
0

>  <JCHEM_FORMULA>
C19H29NO

>  <JCHEM_GHOSE_FILTER>
1

>  <JCHEM_IUPAC>
1-cyclohexyl-1-phenyl-3-(pyrrolidin-1-yl)propan-1-ol

>  <ALOGPS_LOGP>
4.1300001

>  <JCHEM_LOGP>
3.7881169

>  <ALOGPS_LOGS>
-4.4699998

>  <JCHEM_MASS>
287.4397

>  <JCHEM_MDDR_LIKE_RULE>
0

>  <JCHEM_NUMBER_OF_RINGS>
3

>  <JCHEM_PHYSIOLOGICAL_CHARGE>
1

>  <JCHEM_PKA_STRONGEST_ACIDIC>
13.840035

>  <JCHEM_PKA_STRONGEST_BASIC>
9.4468298

>  <JCHEM_POLAR_SURFACE_AREA>
23.469999

>  <JCHEM_REFRACTIVITY>
88.604202

>  <JCHEM_ROTATABLE_BOND_COUNT>
5

>  <JCHEM_RULE_OF_FIVE>
1

>  <ALOGPS_SOLUBILITY>
9.84e-03 g/l

>  <JCHEM_TRADITIONAL_IUPAC>
procyclidine

>  <JCHEM_VEBER_RULE>
1

>  <DRUGBANK_ID>
DB00387

>  <DRUG_GROUPS>
approved

>  <GENERIC_NAME>
Procyclidine

>  <SYNONYMS>
1-cyclohexyl-1-phenyl-3-pyrrolidin-1-yl-propan-1-ol hydrochloride; Prociclidina; Procyclidin; Procyclidinum

>  <BRANDS>
Arpicolin; Extranil; Kdrine; Kemadren; Kemadrin; Osnervan; Prodine; Proimer

>  <SALTS>
Procyclidine hydrochloride

$$$$
Phenylephrine
 OpenBabel02121510022D

 12 12  0  0  1  0  0  0  0  0999 V2000
    2.3640    1.0810    0.0000 O   0  0  0  0  0  0  0  0  0  0  0  0
    1.6500   -1.8070    0.0000 O   0  0  0  0  0  0  0  0  0  0  0  0
    3.7940    1.9060    0.0000 N   0  0  0  0  0  0  0  0  0  0  0  0
    3.0790    0.6680    0.0000 C   0  0  1  0  0  0  0  0  0  0  0  0
    3.7940    1.0810    0.0000 C   0  0  0  0  0  0  0  0  0  0  0  0
    3.0790   -0.1570    0.0000 C   0  0  0  0  0  0  0  0  0  0  0  0
    2.3640   -0.5690    0.0000 C   0  0  0  0  0  0  0  0  0  0  0  0
    3.7940   -0.5690    0.0000 C   0  0  0  0  0  0  0  0  0  0  0  0
    2.3640   -1.3940    0.0000 C   0  0  0  0  0  0  0  0  0  0  0  0
    3.7940   -1.3940    0.0000 C   0  0  0  0  0  0  0  0  0  0  0  0
    3.0790   -1.8070    0.0000 C   0  0  0  0  0  0  0  0  0  0  0  0
    4.5080    2.3180    0.0000 C   0  0  0  0  0  0  0  0  0  0  0  0
  2  9  1  0  0  0  0
  3  5  1  0  0  0  0
  3 12  1  0  0  0  0
  4  1  1  1  0  0  0
  4  5  1  0  0  0  0
  4  6  1  0  0  0  0
  6  7  2  0  0  0  0
  6  8  1  0  0  0  0
  7  9  1  0  0  0  0
  8 10  2  0  0  0  0
  9 11  2  0  0  0  0
 10 11  1  0  0  0  0
M  END
>  <DATABASE_ID>
DB00388

>  <DATABASE_NAME>
drugbank

>  <SMILES>
Oc1cc(ccc1)[C@@H](O)CNC

>  <INCHI_IDENTIFIER>
InChI=1S/C9H13NO2/c1-10-6-9(12)7-3-2-4-8(11)5-7/h2-5,9-12H,6H2,1H3/t9-/m0/s1

>  <INCHI_KEY>
InChIKey=SONNWYBIRXJNDC-VIFPVBQESA-N

>  <JCHEM_ACCEPTOR_COUNT>
3

>  <JCHEM_AVERAGE_POLARIZABILITY>
18.199635

>  <JCHEM_BIOAVAILABILITY>
1

>  <JCHEM_DONOR_COUNT>
3

>  <JCHEM_EXACT_MASS>
167.09464

>  <JCHEM_FORMAL_CHARGE>
0

>  <JCHEM_FORMULA>
C9H13NO2

>  <JCHEM_GHOSE_FILTER>
1

>  <JCHEM_IUPAC>
3-[(1R)-1-hydroxy-2-(methylamino)ethyl]phenol

>  <ALOGPS_LOGP>
-0.69

>  <JCHEM_LOGP>
-0.070160724

>  <ALOGPS_LOGS>
-0.88

>  <JCHEM_MASS>
167.205

>  <JCHEM_MDDR_LIKE_RULE>
0

>  <JCHEM_NUMBER_OF_RINGS>
1

>  <JCHEM_PHYSIOLOGICAL_CHARGE>
1

>  <JCHEM_PKA>
14.239851

>  <JCHEM_PKA_STRONGEST_ACIDIC>
9.0678015

>  <JCHEM_PKA_STRONGEST_BASIC>
9.6870804

>  <JCHEM_POLAR_SURFACE_AREA>
52.490002

>  <JCHEM_REFRACTIVITY>
47.249401

>  <JCHEM_ROTATABLE_BOND_COUNT>
3

>  <JCHEM_RULE_OF_FIVE>
1

>  <ALOGPS_SOLUBILITY>
2.20e+01 g/l

>  <JCHEM_TRADITIONAL_IUPAC>
phenylephrine

>  <JCHEM_VEBER_RULE>
0

>  <DRUGBANK_ID>
DB00388

>  <DRUG_GROUPS>
approved

>  <GENERIC_NAME>
Phenylephrine

>  <SYNONYMS>
(-)-m-Hydroxy-α-(methylaminomethyl)benzyl alcohol; Fenilefrina; l-(3-Hydroxyphenyl)-N-methylethanolamine; Phenylephrinum; R(-)-Phenylephrine

>  <BRANDS>
AK-Dilate; AK-Nefrin; Alconefrin; Mesatone; Minims Phenylephrine; Mydfrin; Neo-Synephrine; Neofrin; Ocugestrin; Phenoptic; Prefrin; Rhinall; Spersaphrine; Visadron

>  <SALTS>
Phenylephrine hydrochloride

$$$$
Carbimazole
 OpenBabel02121510022D

 12 12  0  0  0  0  0  0  0  0999 V2000
    4.5310    0.4990    0.0000 S   0  0  0  0  0  0  0  0  0  0  0  0
    2.3640   -0.9680    0.0000 O   0  0  0  0  0  0  0  0  0  0  0  0
    3.7940   -0.9680    0.0000 O   0  0  0  0  0  0  0  0  0  0  0  0
    3.4920    1.5390    0.0000 N   0  0  0  0  0  0  0  0  0  0  0  0
    3.0790    0.2690    0.0000 N   0  0  0  0  0  0  0  0  0  0  0  0
    3.7460    0.7540    0.0000 C   0  0  0  0  0  0  0  0  0  0  0  0
    2.4120    0.7540    0.0000 C   0  0  0  0  0  0  0  0  0  0  0  0
    2.6670    1.5390    0.0000 C   0  0  0  0  0  0  0  0  0  0  0  0
    3.9760    2.2060    0.0000 C   0  0  0  0  0  0  0  0  0  0  0  0
    3.0790   -0.5560    0.0000 C   0  0  0  0  0  0  0  0  0  0  0  0
    2.3640   -1.7940    0.0000 C   0  0  0  0  0  0  0  0  0  0  0  0
    1.6500   -2.2060    0.0000 C   0  0  0  0  0  0  0  0  0  0  0  0
  1  6  2  0  0  0  0
  2 10  1  0  0  0  0
  2 11  1  0  0  0  0
  3 10  2  0  0  0  0
  4  6  1  0  0  0  0
  4  8  1  0  0  0  0
  4  9  1  0  0  0  0
  5  6  1  0  0  0  0
  5  7  1  0  0  0  0
  5 10  1  0  0  0  0
  7  8  2  0  0  0  0
 11 12  1  0  0  0  0
M  END
>  <DATABASE_ID>
DB00389

>  <DATABASE_NAME>
drugbank

>  <SMILES>
S=C1N(C=CN1C)C(OCC)=O

>  <INCHI_IDENTIFIER>
InChI=1S/C7H10N2O2S/c1-3-11-7(10)9-5-4-8(2)6(9)12/h4-5H,3H2,1-2H3

>  <INCHI_KEY>
InChIKey=CFOYWRHIYXMDOT-UHFFFAOYSA-N

>  <JCHEM_ACCEPTOR_COUNT>
1

>  <JCHEM_AVERAGE_POLARIZABILITY>
18.706131

>  <JCHEM_BIOAVAILABILITY>
1

>  <JCHEM_DONOR_COUNT>
0

>  <JCHEM_EXACT_MASS>
186.0463

>  <JCHEM_FORMAL_CHARGE>
0

>  <JCHEM_FORMULA>
C7H10N2O2S

>  <JCHEM_GHOSE_FILTER>
1

>  <JCHEM_IUPAC>
ethyl 3-methyl-2-sulfanylidene-2,3-dihydro-1H-imidazole-1-carboxylate

>  <ALOGPS_LOGP>
0.77999997

>  <JCHEM_LOGP>
1.3485112

>  <ALOGPS_LOGS>
-1.77

>  <JCHEM_MASS>
186.23199

>  <JCHEM_MDDR_LIKE_RULE>
0

>  <JCHEM_NUMBER_OF_RINGS>
1

>  <JCHEM_PHYSIOLOGICAL_CHARGE>
0

>  <JCHEM_PKA_STRONGEST_BASIC>
-3

>  <JCHEM_POLAR_SURFACE_AREA>
32.779999

>  <JCHEM_REFRACTIVITY>
49.1703

>  <JCHEM_ROTATABLE_BOND_COUNT>
2

>  <JCHEM_RULE_OF_FIVE>
1

>  <ALOGPS_SOLUBILITY>
3.14e+00 g/l

>  <JCHEM_TRADITIONAL_IUPAC>
carbimazole

>  <JCHEM_VEBER_RULE>
1

>  <DRUGBANK_ID>
DB00389

>  <DRUG_GROUPS>
approved

>  <GENERIC_NAME>
Carbimazole

>  <SYNONYMS>
1H-Imidazole-1-carboxylic acid, 2,3-dihydro-3-methyl-2-thioxo-, ethyl ester  Ethyl 3-methyl-2-thioimidazoline-1-carboxylate; Athyromazole; Carbethoxymethimazole; Carbimazol; Carbimazolo; Carbimazolum; Carbinazole; Ethyl 3-methyl-2-thioimidazoline-1-carboxylate

>  <BRANDS>
Camen; Carbimazol; Carbinom; Carbizol; Neomercazole; Neomerdin; Newmazole; Thyrocab; Thyrostat; Tyrazol; Upha Carbimazole

$$$$
Digoxin
 OpenBabel02121510022D

 58 65  0  0  1  0  0  0  0  0999 V2000
   13.3010   -7.7040    0.0000 O   0  0  0  0  0  0  0  0  0  0  0  0
   14.0050   -7.2490    0.0000 C   0  0  2  0  0  0  0  0  0  0  0  0
   14.7190   -7.6610    0.0000 C   0  0  0  0  0  0  0  0  0  0  0  0
   15.4340   -7.2490    0.0000 C   0  0  2  0  0  0  0  0  0  0  0  0
   15.4340   -6.4240    0.0000 C   0  0  2  0  0  0  0  0  0  0  0  0
   14.7190   -6.0110    0.0000 C   0  0  0  0  0  0  0  0  0  0  0  0
   14.0050   -6.4240    0.0000 C   0  0  0  0  0  0  0  0  0  0  0  0
   16.1480   -7.6610    0.0000 C   0  0  0  0  0  0  0  0  0  0  0  0
   16.8630   -7.2490    0.0000 C   0  0  0  0  0  0  0  0  0  0  0  0
   16.8630   -6.4240    0.0000 C   0  0  2  0  0  0  0  0  0  0  0  0
   16.1480   -6.0110    0.0000 C   0  0  2  0  0  0  0  0  0  0  0  0
   17.5770   -6.0110    0.0000 C   0  0  2  0  0  0  0  0  0  0  0  0
   17.5770   -5.1860    0.0000 C   0  0  2  0  0  0  0  0  0  0  0  0
   16.8630   -4.7740    0.0000 C   0  0  1  0  0  0  0  0  0  0  0  0
   16.1480   -5.1860    0.0000 C   0  0  0  0  0  0  0  0  0  0  0  0
   18.3620   -6.2660    0.0000 C   0  0  0  0  0  0  0  0  0  0  0  0
   18.8470   -5.5990    0.0000 C   0  0  0  0  0  0  0  0  0  0  0  0
   18.3620   -4.9320    0.0000 C   0  0  2  0  0  0  0  0  0  0  0  0
   18.6200   -4.1340    0.0000 C   0  0  0  0  0  0  0  0  0  0  0  0
   19.4520   -4.1510    0.0000 C   0  0  0  0  0  0  0  0  0  0  0  0
   19.7260   -3.3680    0.0000 C   0  0  0  0  0  0  0  0  0  0  0  0
   19.0660   -2.8660    0.0000 O   0  0  0  0  0  0  0  0  0  0  0  0
   18.3840   -3.3380    0.0000 C   0  0  0  0  0  0  0  0  0  0  0  0
   20.5060   -3.1330    0.0000 O   0  0  0  0  0  0  0  0  0  0  0  0
   17.5770   -4.3610    0.0000 C   0  0  0  0  0  0  0  0  0  0  0  0
   17.5770   -6.8360    0.0000 O   0  0  0  0  0  0  0  0  0  0  0  0
   16.8630   -5.5990    0.0000 H   0  0  0  0  0  0  0  0  0  0  0  0
   15.4340   -5.5990    0.0000 C   0  0  0  0  0  0  0  0  0  0  0  0
   15.4340   -8.0740    0.0000 H   0  0  0  0  0  0  0  0  0  0  0  0
   16.1480   -6.8360    0.0000 H   0  0  0  0  0  0  0  0  0  0  0  0
   12.5630   -7.3270    0.0000 C   0  0  2  0  0  0  0  0  0  0  0  0
   12.5630   -6.5020    0.0000 O   0  0  0  0  0  0  0  0  0  0  0  0
   11.8490   -6.0900    0.0000 C   0  0  1  0  0  0  0  0  0  0  0  0
   11.1340   -6.5020    0.0000 C   0  0  2  0  0  0  0  0  0  0  0  0
   11.1340   -7.3270    0.0000 C   0  0  2  0  0  0  0  0  0  0  0  0
   11.8490   -7.7400    0.0000 C   0  0  0  0  0  0  0  0  0  0  0  0
   10.4200   -6.0900    0.0000 O   0  0  0  0  0  0  0  0  0  0  0  0
    9.7050   -6.5020    0.0000 C   0  0  2  0  0  0  0  0  0  0  0  0
    9.7050   -7.3270    0.0000 O   0  0  0  0  0  0  0  0  0  0  0  0
   10.4200   -7.7400    0.0000 O   0  0  0  0  0  0  0  0  0  0  0  0
    8.9910   -6.0900    0.0000 C   0  0  0  0  0  0  0  0  0  0  0  0
    8.2760   -6.5020    0.0000 C   0  0  1  0  0  0  0  0  0  0  0  0
    8.2760   -7.3270    0.0000 C   0  0  1  0  0  0  0  0  0  0  0  0
    8.9910   -7.7400    0.0000 C   0  0  1  0  0  0  0  0  0  0  0  0
    7.5620   -6.0900    0.0000 O   0  0  0  0  0  0  0  0  0  0  0  0
    6.8470   -6.5020    0.0000 O   0  0  0  0  0  0  0  0  0  0  0  0
    6.8470   -7.3270    0.0000 C   0  0  1  0  0  0  0  0  0  0  0  0
    7.5620   -7.7400    0.0000 O   0  0  0  0  0  0  0  0  0  0  0  0
    6.1330   -6.0900    0.0000 C   0  0  1  0  0  0  0  0  0  0  0  0
    5.4180   -6.5020    0.0000 C   0  0  2  0  0  0  0  0  0  0  0  0
    5.4180   -7.3270    0.0000 C   0  0  2  0  0  0  0  0  0  0  0  0
    6.1330   -7.7400    0.0000 C   0  0  0  0  0  0  0  0  0  0  0  0
    4.7040   -6.0900    0.0000 O   0  0  0  0  0  0  0  0  0  0  0  0
    4.7040   -7.7400    0.0000 O   0  0  0  0  0  0  0  0  0  0  0  0
   11.8480   -5.2530    0.0000 C   0  0  0  0  0  0  0  0  0  0  0  0
    8.9910   -8.5530    0.0000 C   0  0  0  0  0  0  0  0  0  0  0  0
    6.1330   -5.2530    0.0000 C   0  0  0  0  0  0  0  0  0  0  0  0
   16.8630   -3.9480    0.0000 O   0  0  0  0  0  0  0  0  0  0  0  0
  2  1  1  1  0  0  0
  2  3  1  0  0  0  0
  2  7  1  0  0  0  0
  3  4  1  0  0  0  0
  4  5  1  0  0  0  0
  4  8  1  0  0  0  0
  4 29  1  1  0  0  0
  5  6  1  0  0  0  0
  5 11  1  0  0  0  0
  5 28  1  1  0  0  0
  6  7  1  0  0  0  0
  8  9  1  0  0  0  0
  9 10  1  0  0  0  0
 10 11  1  0  0  0  0
 10 12  1  0  0  0  0
 10 27  1  1  0  0  0
 11 15  1  0  0  0  0
 11 30  1  6  0  0  0
 12 13  1  0  0  0  0
 12 16  1  0  0  0  0
 12 26  1  1  0  0  0
 13 14  1  0  0  0  0
 13 18  1  0  0  0  0
 13 25  1  1  0  0  0
 14 15  1  0  0  0  0
 14 58  1  1  0  0  0
 16 17  1  0  0  0  0
 17 18  1  0  0  0  0
 18 19  1  1  0  0  0
 19 20  2  0  0  0  0
 19 23  1  0  0  0  0
 20 21  1  0  0  0  0
 21 22  1  0  0  0  0
 21 24  2  0  0  0  0
 22 23  1  0  0  0  0
 31  1  1  1  0  0  0
 31 32  1  0  0  0  0
 31 36  1  0  0  0  0
 32 33  1  0  0  0  0
 33 34  1  0  0  0  0
 33 55  1  1  0  0  0
 34 35  1  0  0  0  0
 34 37  1  6  0  0  0
 35 36  1  0  0  0  0
 35 40  1  6  0  0  0
 38 37  1  6  0  0  0
 38 39  1  0  0  0  0
 38 41  1  0  0  0  0
 39 44  1  0  0  0  0
 41 42  1  0  0  0  0
 42 43  1  0  0  0  0
 42 45  1  1  0  0  0
 43 44  1  0  0  0  0
 43 48  1  1  0  0  0
 44 56  1  6  0  0  0
 46 47  1  0  0  0  0
 46 49  1  0  0  0  0
 47 48  1  1  0  0  0
 47 52  1  0  0  0  0
 49 50  1  0  0  0  0
 49 57  1  1  0  0  0
 50 51  1  0  0  0  0
 50 53  1  6  0  0  0
 51 52  1  0  0  0  0
 51 54  1  6  0  0  0
M  END
>  <DATABASE_ID>
DB00390

>  <DATABASE_NAME>
drugbank

>  <SMILES>
O1CC(=CC1=O)[C@H]1CC[C@]2(O)[C@H]3[C@H](C[C@@H](O)[C@]12C)[C@@]1([C@@H](C[C@@H](O[C@@H]2O[C@H](C)[C@@H](O[C@@H]4O[C@H](C)[C@@H](O[C@@H]5O[C@H](C)[C@@H](O)[C@@H](O)C5)[C@@H](O)C4)[C@@H](O)C2)CC1)CC3)C

>  <INCHI_IDENTIFIER>
InChI=1S/C41H64O14/c1-19-36(47)28(42)15-34(50-19)54-38-21(3)52-35(17-30(38)44)55-37-20(2)51-33(16-29(37)43)53-24-8-10-39(4)23(13-24)6-7-26-27(39)14-31(45)40(5)25(9-11-41(26,40)48)22-12-32(46)49-18-22/h12,19-21,23-31,33-38,42-45,47-48H,6-11,13-18H2,1-5H3/t19-,20-,21-,23-,24+,25-,26-,27+,28+,29+,30+,31-,33+,34+,35+,36-,37-,38-,39+,40+,41+/m1/s1

>  <INCHI_KEY>
InChIKey=LTMHDMANZUZIPE-PUGKRICDSA-N

>  <JCHEM_ACCEPTOR_COUNT>
13

>  <JCHEM_AVERAGE_POLARIZABILITY>
84.803299

>  <JCHEM_BIOAVAILABILITY>
0

>  <JCHEM_DONOR_COUNT>
6

>  <JCHEM_EXACT_MASS>
780.42963

>  <JCHEM_FORMAL_CHARGE>
0

>  <JCHEM_FORMULA>
C41H64O14

>  <JCHEM_GHOSE_FILTER>
0

>  <JCHEM_IUPAC>
4-[(1S,2S,5S,7R,10R,11S,14R,15S,16R)-5-{[(2R,4S,5S,6R)-5-{[(2S,4S,5S,6R)-5-{[(2S,4S,5S,6R)-4,5-dihydroxy-6-methyloxan-2-yl]oxy}-4-hydroxy-6-methyloxan-2-yl]oxy}-4-hydroxy-6-methyloxan-2-yl]oxy}-11,16-dihydroxy-2,15-dimethyltetracyclo[8.7.0.0^{2,7}.0^{11,15}]heptadecan-14-yl]-2,5-dihydrofuran-2-one

>  <ALOGPS_LOGP>
1.04

>  <JCHEM_LOGP>
2.3666806

>  <ALOGPS_LOGS>
-3.79

>  <JCHEM_MASS>
780.93848

>  <JCHEM_MDDR_LIKE_RULE>
1

>  <JCHEM_NUMBER_OF_RINGS>
8

>  <JCHEM_PHYSIOLOGICAL_CHARGE>
0

>  <JCHEM_PKA>
12.983555

>  <JCHEM_PKA_STRONGEST_ACIDIC>
7.1511159

>  <JCHEM_PKA_STRONGEST_BASIC>
-2.9760749

>  <JCHEM_POLAR_SURFACE_AREA>
203.06

>  <JCHEM_REFRACTIVITY>
193.2328

>  <JCHEM_ROTATABLE_BOND_COUNT>
7

>  <JCHEM_RULE_OF_FIVE>
0

>  <ALOGPS_SOLUBILITY>
1.27e-01 g/l

>  <JCHEM_TRADITIONAL_IUPAC>
digoxin

>  <JCHEM_VEBER_RULE>
0

>  <DRUGBANK_ID>
DB00390

>  <DRUG_GROUPS>
approved

>  <GENERIC_NAME>
Digoxin

>  <SYNONYMS>
12β-hydroxydigitoxin; 4-[(3S,5R,8R,9S,10S,12R,13S,14S)-3-[(2S,4S,5R,6R)-5-[(2S,4S,5R,6R)-5-[(2S,4S,5R,6R)-4,5-dihydroxy-6-methyl-oxan-2-yl]oxy-4-hydroxy-6-methyl-oxan-2-yl]oxy-4-hydroxy-6-methyl-oxan-2-yl]oxy-12,14-dihydroxy-10,13-dimethyl-1,2,3,4,5,6,7,8,9,11,12,15,16,17-tetradecahydrocyclopenta[a]phenanthren-17-yl]-5H-furan-2-one; Digazolan; Digossina; Digoxin; Digoxina; Digoxine; Digoxinum; Lanadicor

>  <BRANDS>
Agoxin; Cardiacin; Cardiogoxin; Cardioxin; Cardoxin; Celoxin; Centoxin; Digacin; Digitek; Digocard-G; DIGOX; Digoxina; Eudigox; Lanacordin; Lanacrist; Lanicor; Lanoxicaps; Lanoxin; Lenoxin

$$$$
Sulpiride
 OpenBabel02121510022D

 23 24  0  0  1  0  0  0  0  0999 V2000
    5.2220   -2.0960    0.0000 S   0  0  0  0  0  0  0  0  0  0  0  0
    3.0790    0.7910    0.0000 O   0  0  0  0  0  0  0  0  0  0  0  0
    2.3640   -0.4460    0.0000 O   0  0  0  0  0  0  0  0  0  0  0  0
    5.6350   -1.3820    0.0000 O   0  0  0  0  0  0  0  0  0  0  0  0
    4.8100   -2.8110    0.0000 O   0  0  0  0  0  0  0  0  0  0  0  0
    5.9760    1.6930    0.0000 N   0  0  0  0  0  0  0  0  0  0  0  0
    4.5080    0.7910    0.0000 N   0  0  0  0  0  0  0  0  0  0  0  0
    5.9370   -2.5090    0.0000 N   0  0  0  0  0  0  0  0  0  0  0  0
    5.2220    2.0290    0.0000 C   0  0  3  0  0  0  0  0  0  0  0  0
    5.3090    2.8490    0.0000 C   0  0  0  0  0  0  0  0  0  0  0  0
    6.1160    3.0210    0.0000 C   0  0  0  0  0  0  0  0  0  0  0  0
    6.5280    2.3060    0.0000 C   0  0  0  0  0  0  0  0  0  0  0  0
    4.5080    1.6160    0.0000 C   0  0  0  0  0  0  0  0  0  0  0  0
    6.1480    0.8860    0.0000 C   0  0  0  0  0  0  0  0  0  0  0  0
    6.9320    0.6310    0.0000 C   0  0  0  0  0  0  0  0  0  0  0  0
    3.7940    0.3780    0.0000 C   0  0  0  0  0  0  0  0  0  0  0  0
    3.7940   -0.4460    0.0000 C   0  0  0  0  0  0  0  0  0  0  0  0
    4.5080   -0.8590    0.0000 C   0  0  0  0  0  0  0  0  0  0  0  0
    3.0790   -0.8590    0.0000 C   0  0  0  0  0  0  0  0  0  0  0  0
    4.5080   -1.6840    0.0000 C   0  0  0  0  0  0  0  0  0  0  0  0
    3.0790   -1.6840    0.0000 C   0  0  0  0  0  0  0  0  0  0  0  0
    3.7940   -2.0960    0.0000 C   0  0  0  0  0  0  0  0  0  0  0  0
    1.6500   -0.8590    0.0000 C   0  0  0  0  0  0  0  0  0  0  0  0
  1  4  2  0  0  0  0
  1  5  2  0  0  0  0
  1  8  1  0  0  0  0
  1 20  1  0  0  0  0
  2 16  2  0  0  0  0
  3 19  1  0  0  0  0
  3 23  1  0  0  0  0
  6  9  1  0  0  0  0
  6 12  1  0  0  0  0
  6 14  1  0  0  0  0
  7 13  1  0  0  0  0
  7 16  1  0  0  0  0
  9 10  1  0  0  0  0
  9 13  1  0  0  0  0
 10 11  1  0  0  0  0
 11 12  1  0  0  0  0
 14 15  1  0  0  0  0
 16 17  1  0  0  0  0
 17 18  2  0  0  0  0
 17 19  1  0  0  0  0
 18 20  1  0  0  0  0
 19 21  2  0  0  0  0
 20 22  2  0  0  0  0
 21 22  1  0  0  0  0
M  END
>  <DATABASE_ID>
DB00391

>  <DATABASE_NAME>
drugbank

>  <SMILES>
S(=O)(=O)(N)c1cc(C(=O)NCC2N(CCC2)CC)c(OC)cc1

>  <INCHI_IDENTIFIER>
InChI=1S/C15H23N3O4S/c1-3-18-8-4-5-11(18)10-17-15(19)13-9-12(23(16,20)21)6-7-14(13)22-2/h6-7,9,11H,3-5,8,10H2,1-2H3,(H,17,19)(H2,16,20,21)

>  <INCHI_KEY>
InChIKey=BGRJTUBHPOOWDU-UHFFFAOYSA-N

>  <JCHEM_ACCEPTOR_COUNT>
5

>  <JCHEM_AVERAGE_POLARIZABILITY>
36.176796

>  <JCHEM_BIOAVAILABILITY>
1

>  <JCHEM_DONOR_COUNT>
2

>  <JCHEM_EXACT_MASS>
341.14093

>  <JCHEM_FORMAL_CHARGE>
0

>  <JCHEM_FORMULA>
C15H23N3O4S

>  <JCHEM_GHOSE_FILTER>
1

>  <JCHEM_IUPAC>
N-[(1-ethylpyrrolidin-2-yl)methyl]-2-methoxy-5-sulfamoylbenzamide

>  <ALOGPS_LOGP>
1.2

>  <JCHEM_LOGP>
0.21877044

>  <ALOGPS_LOGS>
-2.8

>  <JCHEM_MASS>
341.42599

>  <JCHEM_MDDR_LIKE_RULE>
0

>  <JCHEM_NUMBER_OF_RINGS>
2

>  <JCHEM_PHYSIOLOGICAL_CHARGE>
1

>  <JCHEM_PKA>
13.510777

>  <JCHEM_PKA_STRONGEST_ACIDIC>
10.239752

>  <JCHEM_PKA_STRONGEST_BASIC>
8.3906422

>  <JCHEM_POLAR_SURFACE_AREA>
101.73

>  <JCHEM_REFRACTIVITY>
88.633102

>  <JCHEM_ROTATABLE_BOND_COUNT>
6

>  <JCHEM_RULE_OF_FIVE>
1

>  <ALOGPS_SOLUBILITY>
5.37e-01 g/l

>  <JCHEM_TRADITIONAL_IUPAC>
sulpiride

>  <JCHEM_VEBER_RULE>
0

>  <DRUGBANK_ID>
DB00391

>  <DRUG_GROUPS>
approved

>  <GENERIC_NAME>
Sulpiride

>  <SYNONYMS>
Levosulpirida; Levosulpiride; Levosulpiridum; Sulpirida; Sulpiridum

>  <BRANDS>
Bosnyl; Dogmatil; Dogmatyl; Dolmatil; Eglonyl; Espiride; Meresa; Modal

$$$$
Ethopropazine
 OpenBabel02121510022D

 22 24  0  0  1  0  0  0  0  0999 V2000
    3.6960   -2.3620    0.0000 S   0  0  0  0  0  0  0  0  0  0  0  0
    4.3820    1.2020    0.0000 N   0  0  0  0  0  0  0  0  0  0  0  0
    3.6960   -0.7780    0.0000 N   0  0  0  0  0  0  0  0  0  0  0  0
    4.3820    0.4100    0.0000 C   0  0  3  0  0  0  0  0  0  0  0  0
    3.6960    0.0140    0.0000 C   0  0  0  0  0  0  0  0  0  0  0  0
    5.0680    0.0140    0.0000 C   0  0  0  0  0  0  0  0  0  0  0  0
    5.0680    1.5980    0.0000 C   0  0  0  0  0  0  0  0  0  0  0  0
    3.6960    1.5980    0.0000 C   0  0  0  0  0  0  0  0  0  0  0  0
    4.3820   -1.1740    0.0000 C   0  0  0  0  0  0  0  0  0  0  0  0
    3.0100   -1.1740    0.0000 C   0  0  0  0  0  0  0  0  0  0  0  0
    4.3820   -1.9660    0.0000 C   0  0  0  0  0  0  0  0  0  0  0  0
    3.0100   -1.9660    0.0000 C   0  0  0  0  0  0  0  0  0  0  0  0
    5.0680    2.3900    0.0000 C   0  0  0  0  0  0  0  0  0  0  0  0
    3.6960    2.3900    0.0000 C   0  0  0  0  0  0  0  0  0  0  0  0
    2.3020   -0.7510    0.0000 C   0  0  0  0  0  0  0  0  0  0  0  0
    5.0900   -0.7510    0.0000 C   0  0  0  0  0  0  0  0  0  0  0  0
    5.0900   -2.3900    0.0000 C   0  0  0  0  0  0  0  0  0  0  0  0
    2.3020   -2.3900    0.0000 C   0  0  0  0  0  0  0  0  0  0  0  0
    1.5840   -1.1580    0.0000 C   0  0  0  0  0  0  0  0  0  0  0  0
    5.8080   -1.1580    0.0000 C   0  0  0  0  0  0  0  0  0  0  0  0
    1.5840   -1.9830    0.0000 C   0  0  0  0  0  0  0  0  0  0  0  0
    5.8080   -1.9830    0.0000 C   0  0  0  0  0  0  0  0  0  0  0  0
  1 11  1  0  0  0  0
  1 12  1  0  0  0  0
  2  4  1  0  0  0  0
  2  7  1  0  0  0  0
  2  8  1  0  0  0  0
  3  5  1  0  0  0  0
  3  9  1  0  0  0  0
  3 10  1  0  0  0  0
  4  5  1  0  0  0  0
  4  6  1  0  0  0  0
  7 13  1  0  0  0  0
  8 14  1  0  0  0  0
  9 11  2  0  0  0  0
  9 16  1  0  0  0  0
 10 12  2  0  0  0  0
 10 15  1  0  0  0  0
 11 17  1  0  0  0  0
 12 18  1  0  0  0  0
 15 19  2  0  0  0  0
 16 20  2  0  0  0  0
 17 22  2  0  0  0  0
 18 21  2  0  0  0  0
 19 21  1  0  0  0  0
 20 22  1  0  0  0  0
M  END
>  <DATABASE_ID>
DB00392

>  <DATABASE_NAME>
drugbank

>  <SMILES>
S1c2c(N(c3c1cccc3)CC(N(CC)CC)C)cccc2

>  <INCHI_IDENTIFIER>
InChI=1S/C19H24N2S/c1-4-20(5-2)15(3)14-21-16-10-6-8-12-18(16)22-19-13-9-7-11-17(19)21/h6-13,15H,4-5,14H2,1-3H3

>  <INCHI_KEY>
InChIKey=CDOZDBSBBXSXLB-UHFFFAOYSA-N

>  <JCHEM_ACCEPTOR_COUNT>
2

>  <JCHEM_AVERAGE_POLARIZABILITY>
36.340233

>  <JCHEM_BIOAVAILABILITY>
1

>  <JCHEM_DONOR_COUNT>
0

>  <JCHEM_EXACT_MASS>
312.16602

>  <JCHEM_FORMAL_CHARGE>
0

>  <JCHEM_FORMULA>
C19H24N2S

>  <JCHEM_GHOSE_FILTER>
1

>  <JCHEM_IUPAC>
diethyl[1-(10H-phenothiazin-10-yl)propan-2-yl]amine

>  <ALOGPS_LOGP>
5.75

>  <JCHEM_LOGP>
5.0011868

>  <ALOGPS_LOGS>
-4.7800002

>  <JCHEM_MASS>
312.47198

>  <JCHEM_MDDR_LIKE_RULE>
0

>  <JCHEM_NUMBER_OF_RINGS>
3

>  <JCHEM_PHYSIOLOGICAL_CHARGE>
1

>  <JCHEM_PKA_STRONGEST_BASIC>
9.6009026

>  <JCHEM_POLAR_SURFACE_AREA>
6.48

>  <JCHEM_REFRACTIVITY>
98.002098

>  <JCHEM_ROTATABLE_BOND_COUNT>
5

>  <JCHEM_RULE_OF_FIVE>
0

>  <ALOGPS_SOLUBILITY>
5.24e-03 g/l

>  <JCHEM_TRADITIONAL_IUPAC>
ethopropazine

>  <JCHEM_VEBER_RULE>
1

>  <DRUGBANK_ID>
DB00392

>  <DRUG_GROUPS>
approved

>  <GENERIC_NAME>
Ethopropazine

>  <SYNONYMS>
Profenamina; Profenamine; Profenaminum

>  <BRANDS>
Dibutil; Parkin; Parsidan; Parsidol

>  <SALTS>
Ethopropazine Hydrochloride

$$$$
Nimodipine
 OpenBabel02121510022D

 30 31  0  0  1  0  0  0  0  0999 V2000
    3.0790   -0.9820    0.0000 O   0  0  0  0  0  0  0  0  0  0  0  0
    7.3660   -0.9820    0.0000 O   0  0  0  0  0  0  0  0  0  0  0  0
    3.7940    0.2560    0.0000 O   0  0  0  0  0  0  0  0  0  0  0  0
    6.6520    0.2560    0.0000 O   0  0  0  0  0  0  0  0  0  0  0  0
    9.5090   -0.5690    0.0000 O   0  0  0  0  0  0  0  0  0  0  0  0
    6.6520    2.7310    0.0000 O   0  5  0  0  0  0  0  0  0  0  0  0
    7.3660    1.4930    0.0000 O   0  0  0  0  0  0  0  0  0  0  0  0
    5.2220   -2.2190    0.0000 N   0  0  0  0  0  0  0  0  0  0  0  0
    6.6520    1.9060    0.0000 N   0  3  0  0  0  0  0  0  0  0  0  0
    5.2220   -0.5690    0.0000 C   0  0  3  0  0  0  0  0  0  0  0  0
    4.5080   -0.9820    0.0000 C   0  0  0  0  0  0  0  0  0  0  0  0
    5.9370   -0.9820    0.0000 C   0  0  0  0  0  0  0  0  0  0  0  0
    5.2220    0.2560    0.0000 C   0  0  0  0  0  0  0  0  0  0  0  0
    4.5080   -1.8070    0.0000 C   0  0  0  0  0  0  0  0  0  0  0  0
    5.9370   -1.8070    0.0000 C   0  0  0  0  0  0  0  0  0  0  0  0
    3.7940   -0.5690    0.0000 C   0  0  0  0  0  0  0  0  0  0  0  0
    5.9370    0.6680    0.0000 C   0  0  0  0  0  0  0  0  0  0  0  0
    6.6520   -0.5690    0.0000 C   0  0  0  0  0  0  0  0  0  0  0  0
    4.5080    0.6680    0.0000 C   0  0  0  0  0  0  0  0  0  0  0  0
    3.7940   -2.2190    0.0000 C   0  0  0  0  0  0  0  0  0  0  0  0
    6.6520   -2.2190    0.0000 C   0  0  0  0  0  0  0  0  0  0  0  0
    5.9370    1.4930    0.0000 C   0  0  0  0  0  0  0  0  0  0  0  0
    4.5080    1.4930    0.0000 C   0  0  0  0  0  0  0  0  0  0  0  0
    2.3640   -0.5690    0.0000 C   0  0  0  0  0  0  0  0  0  0  0  0
    5.2220    1.9060    0.0000 C   0  0  0  0  0  0  0  0  0  0  0  0
    8.0800   -0.5690    0.0000 C   0  0  0  0  0  0  0  0  0  0  0  0
    1.6500   -0.9820    0.0000 C   0  0  0  0  0  0  0  0  0  0  0  0
    2.3640    0.2560    0.0000 C   0  0  0  0  0  0  0  0  0  0  0  0
    8.7950   -0.9820    0.0000 C   0  0  0  0  0  0  0  0  0  0  0  0
   10.2240   -0.9820    0.0000 C   0  0  0  0  0  0  0  0  0  0  0  0
  1 16  1  0  0  0  0
  1 24  1  0  0  0  0
  2 18  1  0  0  0  0
  2 26  1  0  0  0  0
  3 16  2  0  0  0  0
  4 18  2  0  0  0  0
  5 29  1  0  0  0  0
  5 30  1  0  0  0  0
  6  9  1  0  0  0  0
  7  9  2  0  0  0  0
  8 14  1  0  0  0  0
  8 15  1  0  0  0  0
  9 22  1  0  0  0  0
 10 11  1  0  0  0  0
 10 12  1  0  0  0  0
 10 13  1  0  0  0  0
 11 14  2  0  0  0  0
 11 16  1  0  0  0  0
 12 15  2  0  0  0  0
 12 18  1  0  0  0  0
 13 17  2  0  0  0  0
 13 19  1  0  0  0  0
 14 20  1  0  0  0  0
 15 21  1  0  0  0  0
 17 22  1  0  0  0  0
 19 23  2  0  0  0  0
 22 25  2  0  0  0  0
 23 25  1  0  0  0  0
 24 27  1  0  0  0  0
 24 28  1  0  0  0  0
 26 29  1  0  0  0  0
M  CHG  2   6  -1   9   1
M  END
>  <DATABASE_ID>
DB00393

>  <DATABASE_NAME>
drugbank

>  <SMILES>
O(C(=O)C=1C(C(C(OCCOC)=O)=C(NC=1C)C)c1cc([N+](=O)[O-])ccc1)C(C)C

>  <INCHI_IDENTIFIER>
InChI=1S/C21H26N2O7/c1-12(2)30-21(25)18-14(4)22-13(3)17(20(24)29-10-9-28-5)19(18)15-7-6-8-16(11-15)23(26)27/h6-8,11-12,19,22H,9-10H2,1-5H3

>  <INCHI_KEY>
InChIKey=UIAGMCDKSXEBJQ-UHFFFAOYSA-N

>  <JCHEM_ACCEPTOR_COUNT>
6

>  <JCHEM_AVERAGE_POLARIZABILITY>
43.166836

>  <JCHEM_BIOAVAILABILITY>
1

>  <JCHEM_DONOR_COUNT>
1

>  <JCHEM_EXACT_MASS>
418.17401

>  <JCHEM_FORMAL_CHARGE>
0

>  <JCHEM_FORMULA>
C21H26N2O7

>  <JCHEM_GHOSE_FILTER>
1

>  <JCHEM_IUPAC>
3-(2-methoxyethyl) 5-propan-2-yl 2,6-dimethyl-4-(3-nitrophenyl)-1,4-dihydropyridine-3,5-dicarboxylate

>  <ALOGPS_LOGP>
3.4100001

>  <JCHEM_LOGP>
2.5419018

>  <ALOGPS_LOGS>
-4.54

>  <JCHEM_MASS>
418.44031

>  <JCHEM_MDDR_LIKE_RULE>
0

>  <JCHEM_NUMBER_OF_RINGS>
2

>  <JCHEM_PHYSIOLOGICAL_CHARGE>
0

>  <JCHEM_PKA_STRONGEST_BASIC>
5.4053388

>  <JCHEM_POLAR_SURFACE_AREA>
119.68

>  <JCHEM_REFRACTIVITY>
112.3756

>  <JCHEM_ROTATABLE_BOND_COUNT>
10

>  <JCHEM_RULE_OF_FIVE>
1

>  <ALOGPS_SOLUBILITY>
1.20e-02 g/l

>  <JCHEM_TRADITIONAL_IUPAC>
nimodipine

>  <JCHEM_VEBER_RULE>
0

>  <DRUGBANK_ID>
DB00393

>  <DRUG_GROUPS>
approved

>  <GENERIC_NAME>
Nimodipine

>  <SYNONYMS>
Nimodipino; Nimodipinum

>  <BRANDS>
Nimotop; Nymalize ; Periplum

$$$$
Carisoprodol
 OpenBabel02121510022D

 18 17  0  0  1  0  0  0  0  0999 V2000
    6.3800   -0.4530    0.0000 O   0  0  0  0  0  0  0  0  0  0  0  0
    3.5220   -0.4530    0.0000 O   0  0  0  0  0  0  0  0  0  0  0  0
    7.0940    0.7850    0.0000 O   0  0  0  0  0  0  0  0  0  0  0  0
    2.8080   -1.6900    0.0000 O   0  0  0  0  0  0  0  0  0  0  0  0
    7.8090   -0.4530    0.0000 N   0  0  0  0  0  0  0  0  0  0  0  0
    2.0930   -0.4530    0.0000 N   0  0  0  0  0  0  0  0  0  0  0  0
    4.9510   -0.4530    0.0000 C   0  0  3  0  0  0  0  0  0  0  0  0
    4.5380    0.2620    0.0000 C   0  0  0  0  0  0  0  0  0  0  0  0
    5.6660   -0.0400    0.0000 C   0  0  0  0  0  0  0  0  0  0  0  0
    4.2360   -0.8650    0.0000 C   0  0  0  0  0  0  0  0  0  0  0  0
    5.3630   -1.1680    0.0000 C   0  0  0  0  0  0  0  0  0  0  0  0
    4.9510    0.9760    0.0000 C   0  0  0  0  0  0  0  0  0  0  0  0
    4.5380    1.6900    0.0000 C   0  0  0  0  0  0  0  0  0  0  0  0
    7.0940   -0.0400    0.0000 C   0  0  0  0  0  0  0  0  0  0  0  0
    8.5230   -0.0400    0.0000 C   0  0  0  0  0  0  0  0  0  0  0  0
    2.8080   -0.8650    0.0000 C   0  0  0  0  0  0  0  0  0  0  0  0
    8.5230    0.7850    0.0000 C   0  0  0  0  0  0  0  0  0  0  0  0
    9.2380   -0.4530    0.0000 C   0  0  0  0  0  0  0  0  0  0  0  0
  1  9  1  0  0  0  0
  1 14  1  0  0  0  0
  2 10  1  0  0  0  0
  2 16  1  0  0  0  0
  3 14  2  0  0  0  0
  4 16  2  0  0  0  0
  5 14  1  0  0  0  0
  5 15  1  0  0  0  0
  6 16  1  0  0  0  0
  7  8  1  0  0  0  0
  7  9  1  0  0  0  0
  7 10  1  0  0  0  0
  7 11  1  0  0  0  0
  8 12  1  0  0  0  0
 12 13  1  0  0  0  0
 15 17  1  0  0  0  0
 15 18  1  0  0  0  0
M  END
>  <DATABASE_ID>
DB00395

>  <DATABASE_NAME>
drugbank

>  <SMILES>
O(CC(CCC)(COC(=O)N)C)C(=O)NC(C)C

>  <INCHI_IDENTIFIER>
InChI=1S/C12H24N2O4/c1-5-6-12(4,7-17-10(13)15)8-18-11(16)14-9(2)3/h9H,5-8H2,1-4H3,(H2,13,15)(H,14,16)

>  <INCHI_KEY>
InChIKey=OFZCIYFFPZCNJE-UHFFFAOYSA-N

>  <JCHEM_ACCEPTOR_COUNT>
2

>  <JCHEM_AVERAGE_POLARIZABILITY>
28.771965

>  <JCHEM_BIOAVAILABILITY>
1

>  <JCHEM_DONOR_COUNT>
2

>  <JCHEM_EXACT_MASS>
260.17361

>  <JCHEM_FORMAL_CHARGE>
0

>  <JCHEM_FORMULA>
C12H24N2O4

>  <JCHEM_GHOSE_FILTER>
1

>  <JCHEM_IUPAC>
2-methyl-2-({[(propan-2-yl)carbamoyl]oxy}methyl)pentyl carbamate

>  <ALOGPS_LOGP>
1.76

>  <JCHEM_LOGP>
1.9243119

>  <ALOGPS_LOGS>
-2.52

>  <JCHEM_MASS>
260.32999

>  <JCHEM_MDDR_LIKE_RULE>
0

>  <JCHEM_NUMBER_OF_RINGS>
0

>  <JCHEM_PHYSIOLOGICAL_CHARGE>
0

>  <JCHEM_PKA>
15.561383

>  <JCHEM_PKA_STRONGEST_ACIDIC>
15.057489

>  <JCHEM_POLAR_SURFACE_AREA>
90.650002

>  <JCHEM_REFRACTIVITY>
67.1008

>  <JCHEM_ROTATABLE_BOND_COUNT>
9

>  <JCHEM_RULE_OF_FIVE>
1

>  <ALOGPS_SOLUBILITY>
7.92e-01 g/l

>  <JCHEM_TRADITIONAL_IUPAC>
carisoprodol

>  <JCHEM_VEBER_RULE>
0

>  <DRUGBANK_ID>
DB00395

>  <DRUG_GROUPS>
approved

>  <GENERIC_NAME>
Carisoprodol

>  <SYNONYMS>
(RS)-2-{[(aminocarbonyl)oxy]methyl}-2-methylpentyl isopropylcarbamate; Carisoprodate; Carisoprodol; Carisoprodolum; Isobamate; Isomeprobamate; Isopropyl meprobamate; Isopropylmeprobamate; Someprobamate

>  <BRANDS>
Carisoma; Gencari; Genesafe; Hiranin; Listaflex; Sanoma; Soma; Tensaprin

$$$$
Progesterone
 OpenBabel02121510022D

 26 29  0  0  1  0  0  0  0  0999 V2000
    6.5850    2.1030    0.0000 O   0  0  0  0  0  0  0  0  0  0  0  0
    1.6500   -2.0650    0.0000 O   0  0  0  0  0  0  0  0  0  0  0  0
    6.0990   -0.3720    0.0000 C   0  0  2  0  0  0  0  0  0  0  0  0
    6.0990    0.4530    0.0000 C   0  0  1  0  0  0  0  0  0  0  0  0
    5.3850   -0.7840    0.0000 C   0  0  1  0  0  0  0  0  0  0  0  0
    4.6700   -0.3720    0.0000 C   0  0  1  0  0  0  0  0  0  0  0  0
    3.9190   -0.7900    0.0000 C   0  0  2  0  0  0  0  0  0  0  0  0
    6.8800    0.7050    0.0000 C   0  0  2  0  0  0  0  0  0  0  0  0
    5.3850    0.8660    0.0000 C   0  0  0  0  0  0  0  0  0  0  0  0
    4.6700    0.4530    0.0000 C   0  0  0  0  0  0  0  0  0  0  0  0
    6.8800   -0.6230    0.0000 C   0  0  0  0  0  0  0  0  0  0  0  0
    5.3980   -1.6440    0.0000 C   0  0  0  0  0  0  0  0  0  0  0  0
    7.3610    0.0410    0.0000 C   0  0  0  0  0  0  0  0  0  0  0  0
    3.9130   -1.6490    0.0000 C   0  0  0  0  0  0  0  0  0  0  0  0
    6.0990    1.2780    0.0000 C   0  0  0  0  0  0  0  0  0  0  0  0
    4.6570   -2.0790    0.0000 C   0  0  0  0  0  0  0  0  0  0  0  0
    3.1550   -0.3250    0.0000 C   0  0  0  0  0  0  0  0  0  0  0  0
    3.9260    0.0350    0.0000 C   0  0  0  0  0  0  0  0  0  0  0  0
    7.1360    1.4890    0.0000 C   0  0  0  0  0  0  0  0  0  0  0  0
    2.3730   -0.7600    0.0000 C   0  0  0  0  0  0  0  0  0  0  0  0
    3.1410   -2.1030    0.0000 C   0  0  0  0  0  0  0  0  0  0  0  0
    2.3660   -1.6550    0.0000 C   0  0  0  0  0  0  0  0  0  0  0  0
    7.9430    1.6590    0.0000 C   0  0  0  0  0  0  0  0  0  0  0  0
    6.1690   -1.0280    0.0000 H   0  0  0  0  0  0  0  0  0  0  0  0
    5.9580   -1.1100    0.0000 H   0  0  0  0  0  0  0  0  0  0  0  0
    5.2420   -0.0420    0.0000 H   0  0  0  0  0  0  0  0  0  0  0  0
  1 19  2  0  0  0  0
  2 22  2  0  0  0  0
  3  4  1  0  0  0  0
  3  5  1  0  0  0  0
  3 11  1  0  0  0  0
  3 24  1  6  0  0  0
  4  8  1  0  0  0  0
  4  9  1  0  0  0  0
  4 15  1  1  0  0  0
  5  6  1  0  0  0  0
  5 12  1  0  0  0  0
  5 25  1  1  0  0  0
  6  7  1  0  0  0  0
  6 10  1  0  0  0  0
  6 26  1  6  0  0  0
  7 14  1  0  0  0  0
  7 17  1  0  0  0  0
  7 18  1  1  0  0  0
  8 13  1  0  0  0  0
  8 19  1  1  0  0  0
  9 10  1  0  0  0  0
 11 13  1  0  0  0  0
 12 16  1  0  0  0  0
 14 16  1  0  0  0  0
 14 21  2  0  0  0  0
 17 20  1  0  0  0  0
 19 23  1  0  0  0  0
 20 22  1  0  0  0  0
 21 22  1  0  0  0  0
M  END
>  <DATABASE_ID>
DB00396

>  <DATABASE_NAME>
drugbank

>  <SMILES>
O=C1CC[C@@]2([C@@H]3[C@H]([C@@H]4CC[C@H](C(=O)C)[C@]4(CC3)C)CCC2=C1)C

>  <INCHI_IDENTIFIER>
InChI=1S/C21H30O2/c1-13(22)17-6-7-18-16-5-4-14-12-15(23)8-10-20(14,2)19(16)9-11-21(17,18)3/h12,16-19H,4-11H2,1-3H3/t16-,17+,18-,19-,20-,21+/m0/s1

>  <INCHI_KEY>
InChIKey=RJKFOVLPORLFTN-LEKSSAKUSA-N

>  <JCHEM_ACCEPTOR_COUNT>
2

>  <JCHEM_AVERAGE_POLARIZABILITY>
37.148373

>  <JCHEM_BIOAVAILABILITY>
1

>  <JCHEM_DONOR_COUNT>
0

>  <JCHEM_EXACT_MASS>
314.22458

>  <JCHEM_FORMAL_CHARGE>
0

>  <JCHEM_FORMULA>
C21H30O2

>  <JCHEM_GHOSE_FILTER>
1

>  <JCHEM_IUPAC>
(1S,2R,10S,11S,14S,15S)-14-acetyl-2,15-dimethyltetracyclo[8.7.0.0^{2,7}.0^{11,15}]heptadec-6-en-5-one

>  <ALOGPS_LOGP>
3.5799999

>  <JCHEM_LOGP>
4.1486044

>  <ALOGPS_LOGS>
-4.7600002

>  <JCHEM_MASS>
314.4617

>  <JCHEM_MDDR_LIKE_RULE>
0

>  <JCHEM_NUMBER_OF_RINGS>
4

>  <JCHEM_PHYSIOLOGICAL_CHARGE>
0

>  <JCHEM_PKA>
19.564854

>  <JCHEM_PKA_STRONGEST_ACIDIC>
18.916313

>  <JCHEM_PKA_STRONGEST_BASIC>
-4.8161888

>  <JCHEM_POLAR_SURFACE_AREA>
34.139999

>  <JCHEM_REFRACTIVITY>
92.705299

>  <JCHEM_ROTATABLE_BOND_COUNT>
1

>  <JCHEM_RULE_OF_FIVE>
1

>  <ALOGPS_SOLUBILITY>
5.46e-03 g/l

>  <JCHEM_TRADITIONAL_IUPAC>
progesterone

>  <JCHEM_VEBER_RULE>
1

>  <DRUGBANK_ID>
DB00396

>  <DRUG_GROUPS>
approved

>  <GENERIC_NAME>
Progesterone

>  <SYNONYMS>
(S)-4-Pregnene-3,20-dione; (S)-Progesterone; 17α-progesterone; Corpus Luteum Hormone; Lutogynon; Pregn-4-ene-3,20-dione; Progesteron; Progesterona; Progestérone; Progesterone; Progesteronum

>  <BRANDS>
Agolutin; Crinone; Cyclogest; Endometrin; Gestone; Prochieve; Progestasert; Progestogel; Prometrium; Qi Ning; Relantan; Susten; Utrogestan; Utrogestran; Utrovin; Vasclor

$$$$
Sorafenib
 OpenBabel02121510022D

 32 34  0  0  0  0  0  0  0  0999 V2000
    1.6500    3.0940    0.0000 Cl  0  0  0  0  0  0  0  0  0  0  0  0
    2.2540    3.9190    0.0000 F   0  0  0  0  0  0  0  0  0  0  0  0
    3.9040    3.9190    0.0000 F   0  0  0  0  0  0  0  0  0  0  0  0
    3.0790    4.7440    0.0000 F   0  0  0  0  0  0  0  0  0  0  0  0
    5.2220   -3.0940    0.0000 O   0  0  0  0  0  0  0  0  0  0  0  0
    3.7940    0.2060    0.0000 O   0  0  0  0  0  0  0  0  0  0  0  0
    8.0800   -2.2690    0.0000 O   0  0  0  0  0  0  0  0  0  0  0  0
    4.5080    1.4440    0.0000 N   0  0  0  0  0  0  0  0  0  0  0  0
    5.2220    0.2060    0.0000 N   0  0  0  0  0  0  0  0  0  0  0  0
    7.3660   -4.3310    0.0000 N   0  0  0  0  0  0  0  0  0  0  0  0
    8.7950   -3.5060    0.0000 N   0  0  0  0  0  0  0  0  0  0  0  0
    3.7940    1.8560    0.0000 C   0  0  0  0  0  0  0  0  0  0  0  0
    3.0790    3.0940    0.0000 C   0  0  0  0  0  0  0  0  0  0  0  0
    3.7940    2.6810    0.0000 C   0  0  0  0  0  0  0  0  0  0  0  0
    5.2220   -0.6190    0.0000 C   0  0  0  0  0  0  0  0  0  0  0  0
    3.0790    1.4440    0.0000 C   0  0  0  0  0  0  0  0  0  0  0  0
    5.2220   -2.2690    0.0000 C   0  0  0  0  0  0  0  0  0  0  0  0
    2.3640    2.6810    0.0000 C   0  0  0  0  0  0  0  0  0  0  0  0
    5.9370   -1.0310    0.0000 C   0  0  0  0  0  0  0  0  0  0  0  0
    4.5080   -1.0310    0.0000 C   0  0  0  0  0  0  0  0  0  0  0  0
    2.3640    1.8560    0.0000 C   0  0  0  0  0  0  0  0  0  0  0  0
    5.9370   -1.8560    0.0000 C   0  0  0  0  0  0  0  0  0  0  0  0
    4.5080   -1.8560    0.0000 C   0  0  0  0  0  0  0  0  0  0  0  0
    4.5080    0.6190    0.0000 C   0  0  0  0  0  0  0  0  0  0  0  0
    3.0790    3.9190    0.0000 C   0  0  0  0  0  0  0  0  0  0  0  0
    5.9370   -3.5060    0.0000 C   0  0  0  0  0  0  0  0  0  0  0  0
    6.6520   -3.0940    0.0000 C   0  0  0  0  0  0  0  0  0  0  0  0
    7.3660   -3.5060    0.0000 C   0  0  0  0  0  0  0  0  0  0  0  0
    5.9370   -4.3310    0.0000 C   0  0  0  0  0  0  0  0  0  0  0  0
    6.6520   -4.7440    0.0000 C   0  0  0  0  0  0  0  0  0  0  0  0
    8.0800   -3.0940    0.0000 C   0  0  0  0  0  0  0  0  0  0  0  0
    9.5090   -3.0940    0.0000 C   0  0  0  0  0  0  0  0  0  0  0  0
  1 18  1  0  0  0  0
  2 25  1  0  0  0  0
  3 25  1  0  0  0  0
  4 25  1  0  0  0  0
  5 17  1  0  0  0  0
  5 26  1  0  0  0  0
  6 24  2  0  0  0  0
  7 31  2  0  0  0  0
  8 12  1  0  0  0  0
  8 24  1  0  0  0  0
  9 15  1  0  0  0  0
  9 24  1  0  0  0  0
 10 28  2  0  0  0  0
 10 30  1  0  0  0  0
 11 31  1  0  0  0  0
 11 32  1  0  0  0  0
 12 14  2  0  0  0  0
 12 16  1  0  0  0  0
 13 14  1  0  0  0  0
 13 18  2  0  0  0  0
 13 25  1  0  0  0  0
 15 19  2  0  0  0  0
 15 20  1  0  0  0  0
 16 21  2  0  0  0  0
 17 22  2  0  0  0  0
 17 23  1  0  0  0  0
 18 21  1  0  0  0  0
 19 22  1  0  0  0  0
 20 23  2  0  0  0  0
 26 27  2  0  0  0  0
 26 29  1  0  0  0  0
 27 28  1  0  0  0  0
 28 31  1  0  0  0  0
 29 30  2  0  0  0  0
M  END
>  <DATABASE_ID>
DB00398

>  <DATABASE_NAME>
drugbank

>  <SMILES>
Clc1ccc(NC(=O)Nc2ccc(Oc3cc(ncc3)C(=O)NC)cc2)cc1C(F)(F)F

>  <INCHI_IDENTIFIER>
InChI=1S/C21H16ClF3N4O3/c1-26-19(30)18-11-15(8-9-27-18)32-14-5-2-12(3-6-14)28-20(31)29-13-4-7-17(22)16(10-13)21(23,24)25/h2-11H,1H3,(H,26,30)(H2,28,29,31)

>  <INCHI_KEY>
InChIKey=MLDQJTXFUGDVEO-UHFFFAOYSA-N

>  <JCHEM_ACCEPTOR_COUNT>
3

>  <JCHEM_AVERAGE_POLARIZABILITY>
41.105865

>  <JCHEM_BIOAVAILABILITY>
1

>  <JCHEM_DONOR_COUNT>
3

>  <JCHEM_EXACT_MASS>
464.0863

>  <JCHEM_FORMAL_CHARGE>
0

>  <JCHEM_FORMULA>
C21H16ClF3N4O3

>  <JCHEM_GHOSE_FILTER>
1

>  <JCHEM_IUPAC>
4-[4-({[4-chloro-3-(trifluoromethyl)phenyl]carbamoyl}amino)phenoxy]-N-methylpyridine-2-carboxamide

>  <ALOGPS_LOGP>
4.1199999

>  <JCHEM_LOGP>
4.3433299

>  <ALOGPS_LOGS>
-5.4299998

>  <JCHEM_MASS>
464.82501

>  <JCHEM_MDDR_LIKE_RULE>
1

>  <JCHEM_NUMBER_OF_RINGS>
3

>  <JCHEM_PHYSIOLOGICAL_CHARGE>
0

>  <JCHEM_PKA>
13.992074

>  <JCHEM_PKA_STRONGEST_ACIDIC>
11.549798

>  <JCHEM_PKA_STRONGEST_BASIC>
2.0299196

>  <JCHEM_POLAR_SURFACE_AREA>
92.349998

>  <JCHEM_REFRACTIVITY>
114.5183

>  <JCHEM_ROTATABLE_BOND_COUNT>
6

>  <JCHEM_RULE_OF_FIVE>
1

>  <ALOGPS_SOLUBILITY>
1.71e-03 g/l

>  <JCHEM_TRADITIONAL_IUPAC>
sorafenib

>  <JCHEM_VEBER_RULE>
0

>  <DRUGBANK_ID>
DB00398

>  <DRUG_GROUPS>
approved; investigational

>  <GENERIC_NAME>
Sorafenib

>  <BRANDS>
Nexavar

>  <SALTS>
Sorafenib Tosylate

$$$$
Griseofulvin
 OpenBabel02121510022D

 24 26  0  0  1  0  0  0  0  0999 V2000
    5.4280    1.1430    0.0000 Cl  0  0  0  0  0  0  0  0  0  0  0  0
    4.4170   -0.3690    0.0000 O   0  0  0  0  0  0  0  0  0  0  0  0
    5.1780   -0.8540    0.0000 O   0  0  0  0  0  0  0  0  0  0  0  0
    2.3170   -0.0600    0.0000 O   0  0  0  0  0  0  0  0  0  0  0  0
    3.7490   -3.3290    0.0000 O   0  0  0  0  0  0  0  0  0  0  0  0
    2.0710    1.1430    0.0000 O   0  0  0  0  0  0  0  0  0  0  0  0
    4.5940    2.6130    0.0000 O   0  0  0  0  0  0  0  0  0  0  0  0
    3.7490   -0.8540    0.0000 C   0  0  2  0  0  0  0  0  0  0  0  0
    3.0350   -1.2670    0.0000 C   0  0  1  0  0  0  0  0  0  0  0  0
    3.0350   -2.0920    0.0000 C   0  0  0  0  0  0  0  0  0  0  0  0
    3.0820   -0.3690    0.0000 C   0  0  0  0  0  0  0  0  0  0  0  0
    4.4640   -1.2670    0.0000 C   0  0  0  0  0  0  0  0  0  0  0  0
    2.2220   -1.4100    0.0000 C   0  0  0  0  0  0  0  0  0  0  0  0
    3.3370    0.4150    0.0000 C   0  0  0  0  0  0  0  0  0  0  0  0
    4.1620    0.4150    0.0000 C   0  0  0  0  0  0  0  0  0  0  0  0
    3.7490   -2.5040    0.0000 C   0  0  0  0  0  0  0  0  0  0  0  0
    4.4640   -2.0920    0.0000 C   0  0  0  0  0  0  0  0  0  0  0  0
    2.8960    1.1530    0.0000 C   0  0  0  0  0  0  0  0  0  0  0  0
    4.6030    1.1530    0.0000 C   0  0  0  0  0  0  0  0  0  0  0  0
    3.3200    1.9000    0.0000 C   0  0  0  0  0  0  0  0  0  0  0  0
    4.1790    1.9000    0.0000 C   0  0  0  0  0  0  0  0  0  0  0  0
    5.8930   -1.2670    0.0000 C   0  0  0  0  0  0  0  0  0  0  0  0
    1.6500    1.8530    0.0000 C   0  0  0  0  0  0  0  0  0  0  0  0
    4.1840    3.3290    0.0000 C   0  0  0  0  0  0  0  0  0  0  0  0
  1 19  1  0  0  0  0
  2 15  1  0  0  0  0
  3 12  1  0  0  0  0
  3 22  1  0  0  0  0
  4 11  2  0  0  0  0
  5 16  2  0  0  0  0
  6 18  1  0  0  0  0
  6 23  1  0  0  0  0
  7 21  1  0  0  0  0
  7 24  1  0  0  0  0
  8  2  1  6  0  0  0
  8  9  1  0  0  0  0
  8 11  1  0  0  0  0
  8 12  1  0  0  0  0
  9 10  1  0  0  0  0
  9 13  1  1  0  0  0
 10 16  1  0  0  0  0
 11 14  1  0  0  0  0
 12 17  2  0  0  0  0
 14 15  2  0  0  0  0
 14 18  1  0  0  0  0
 15 19  1  0  0  0  0
 16 17  1  0  0  0  0
 18 20  2  0  0  0  0
 19 21  2  0  0  0  0
 20 21  1  0  0  0  0
M  END
>  <DATABASE_ID>
DB00400

>  <DATABASE_NAME>
drugbank

>  <SMILES>
Clc1c2O[C@]3([C@@H](CC(=O)C=C3OC)C)C(=O)c2c(OC)cc1OC

>  <INCHI_IDENTIFIER>
InChI=1S/C17H17ClO6/c1-8-5-9(19)6-12(23-4)17(8)16(20)13-10(21-2)7-11(22-3)14(18)15(13)24-17/h6-8H,5H2,1-4H3/t8-,17+/m1/s1

>  <INCHI_KEY>
InChIKey=DDUHZTYCFQRHIY-RBHXEPJQSA-N

>  <JCHEM_ACCEPTOR_COUNT>
6

>  <JCHEM_AVERAGE_POLARIZABILITY>
34.245762

>  <JCHEM_BIOAVAILABILITY>
1

>  <JCHEM_DONOR_COUNT>
0

>  <JCHEM_EXACT_MASS>
352.07138

>  <JCHEM_FORMAL_CHARGE>
0

>  <JCHEM_FORMULA>
C17H17ClO6

>  <JCHEM_GHOSE_FILTER>
1

>  <JCHEM_IUPAC>
(2S,6'R)-7-chloro-2',4,6-trimethoxy-6'-methyl-3H-spiro[1-benzofuran-2,1'-cyclohexan]-2'-ene-3,4'-dione

>  <ALOGPS_LOGP>
2.71

>  <JCHEM_LOGP>
2.1721375

>  <ALOGPS_LOGS>
-3.8399999

>  <JCHEM_MASS>
352.76599

>  <JCHEM_MDDR_LIKE_RULE>
0

>  <JCHEM_NUMBER_OF_RINGS>
3

>  <JCHEM_PHYSIOLOGICAL_CHARGE>
0

>  <JCHEM_PKA_STRONGEST_ACIDIC>
17.688671

>  <JCHEM_PKA_STRONGEST_BASIC>
-4.3228612

>  <JCHEM_POLAR_SURFACE_AREA>
71.059998

>  <JCHEM_REFRACTIVITY>
87.845901

>  <JCHEM_ROTATABLE_BOND_COUNT>
3

>  <JCHEM_RULE_OF_FIVE>
1

>  <ALOGPS_SOLUBILITY>
5.04e-02 g/l

>  <JCHEM_TRADITIONAL_IUPAC>
griseofulvin

>  <JCHEM_VEBER_RULE>
0

>  <DRUGBANK_ID>
DB00400

>  <DRUG_GROUPS>
approved

>  <GENERIC_NAME>
Griseofulvin

>  <SYNONYMS>
(+)-griseofulvin; Amudane; Griseofulvina; Griseofulvine; Griseofulvinum

>  <BRANDS>
Crivicin; Fulcin; Fulvicin; Grifulvin; Grifulvin V; Gris-PEG; Grisactin; Grison-250; Grisovin; Lamoryl; Likuden; Poncyl; S-Fulvin; Spirofulvin; Sporostatin

$$$$
Nisoldipine
 OpenBabel02121510022D

 28 29  0  0  1  0  0  0  0  0999 V2000
    3.7940   -0.5690    0.0000 O   0  0  0  0  0  0  0  0  0  0  0  0
    8.0800   -0.5690    0.0000 O   0  0  0  0  0  0  0  0  0  0  0  0
    4.5080    0.6680    0.0000 O   0  0  0  0  0  0  0  0  0  0  0  0
    7.3660    0.6680    0.0000 O   0  0  0  0  0  0  0  0  0  0  0  0
    7.3660    2.3180    0.0000 O   0  5  0  0  0  0  0  0  0  0  0  0
    8.0800    1.0810    0.0000 O   0  0  0  0  0  0  0  0  0  0  0  0
    5.9370   -1.8070    0.0000 N   0  0  0  0  0  0  0  0  0  0  0  0
    7.3660    1.4930    0.0000 N   0  3  0  0  0  0  0  0  0  0  0  0
    5.9370   -0.1570    0.0000 C   0  0  3  0  0  0  0  0  0  0  0  0
    5.2220   -0.5690    0.0000 C   0  0  0  0  0  0  0  0  0  0  0  0
    6.6520   -0.5690    0.0000 C   0  0  0  0  0  0  0  0  0  0  0  0
    5.9370    0.6680    0.0000 C   0  0  0  0  0  0  0  0  0  0  0  0
    5.2220   -1.3940    0.0000 C   0  0  0  0  0  0  0  0  0  0  0  0
    6.6520   -1.3940    0.0000 C   0  0  0  0  0  0  0  0  0  0  0  0
    4.5080   -0.1570    0.0000 C   0  0  0  0  0  0  0  0  0  0  0  0
    6.6520    1.0810    0.0000 C   0  0  0  0  0  0  0  0  0  0  0  0
    5.2220    1.0810    0.0000 C   0  0  0  0  0  0  0  0  0  0  0  0
    4.5080   -1.8070    0.0000 C   0  0  0  0  0  0  0  0  0  0  0  0
    7.3660   -0.1570    0.0000 C   0  0  0  0  0  0  0  0  0  0  0  0
    7.3660   -1.8070    0.0000 C   0  0  0  0  0  0  0  0  0  0  0  0
    2.3640   -0.5690    0.0000 C   0  0  0  0  0  0  0  0  0  0  0  0
    3.0790   -0.1570    0.0000 C   0  0  0  0  0  0  0  0  0  0  0  0
    6.6520    1.9060    0.0000 C   0  0  0  0  0  0  0  0  0  0  0  0
    5.2220    1.9060    0.0000 C   0  0  0  0  0  0  0  0  0  0  0  0
    5.9370    2.3180    0.0000 C   0  0  0  0  0  0  0  0  0  0  0  0
    1.6500   -0.1570    0.0000 C   0  0  0  0  0  0  0  0  0  0  0  0
    2.3640   -1.3940    0.0000 C   0  0  0  0  0  0  0  0  0  0  0  0
    8.7950   -0.1570    0.0000 C   0  0  0  0  0  0  0  0  0  0  0  0
  1 15  1  0  0  0  0
  1 22  1  0  0  0  0
  2 19  1  0  0  0  0
  2 28  1  0  0  0  0
  3 15  2  0  0  0  0
  4 19  2  0  0  0  0
  5  8  1  0  0  0  0
  6  8  2  0  0  0  0
  7 13  1  0  0  0  0
  7 14  1  0  0  0  0
  8 16  1  0  0  0  0
  9 10  1  0  0  0  0
  9 11  1  0  0  0  0
  9 12  1  0  0  0  0
 10 13  2  0  0  0  0
 10 15  1  0  0  0  0
 11 14  2  0  0  0  0
 11 19  1  0  0  0  0
 12 16  2  0  0  0  0
 12 17  1  0  0  0  0
 13 18  1  0  0  0  0
 14 20  1  0  0  0  0
 16 23  1  0  0  0  0
 17 24  2  0  0  0  0
 21 22  1  0  0  0  0
 21 26  1  0  0  0  0
 21 27  1  0  0  0  0
 23 25  2  0  0  0  0
 24 25  1  0  0  0  0
M  CHG  2   5  -1   8   1
M  END
>  <DATABASE_ID>
DB00401

>  <DATABASE_NAME>
drugbank

>  <SMILES>
O(C(=O)C=1C(C(C(OC)=O)=C(NC=1C)C)c1ccccc1[N+](=O)[O-])CC(C)C

>  <INCHI_IDENTIFIER>
InChI=1S/C20H24N2O6/c1-11(2)10-28-20(24)17-13(4)21-12(3)16(19(23)27-5)18(17)14-8-6-7-9-15(14)22(25)26/h6-9,11,18,21H,10H2,1-5H3

>  <INCHI_KEY>
InChIKey=VKQFCGNPDRICFG-UHFFFAOYSA-N

>  <JCHEM_ACCEPTOR_COUNT>
5

>  <JCHEM_AVERAGE_POLARIZABILITY>
39.719139

>  <JCHEM_BIOAVAILABILITY>
1

>  <JCHEM_DONOR_COUNT>
1

>  <JCHEM_EXACT_MASS>
388.16342

>  <JCHEM_FORMAL_CHARGE>
0

>  <JCHEM_FORMULA>
C20H24N2O6

>  <JCHEM_GHOSE_FILTER>
1

>  <JCHEM_IUPAC>
3-methyl 5-(2-methylpropyl) 2,6-dimethyl-4-(2-nitrophenyl)-1,4-dihydropyridine-3,5-dicarboxylate

>  <ALOGPS_LOGP>
3.6300001

>  <JCHEM_LOGP>
3.0597975

>  <ALOGPS_LOGS>
-4.8299999

>  <JCHEM_MASS>
388.4144

>  <JCHEM_MDDR_LIKE_RULE>
0

>  <JCHEM_NUMBER_OF_RINGS>
2

>  <JCHEM_PHYSIOLOGICAL_CHARGE>
0

>  <JCHEM_PKA_STRONGEST_BASIC>
5.3193069

>  <JCHEM_POLAR_SURFACE_AREA>
110.45

>  <JCHEM_REFRACTIVITY>
105.9089

>  <JCHEM_ROTATABLE_BOND_COUNT>
8

>  <JCHEM_RULE_OF_FIVE>
1

>  <ALOGPS_SOLUBILITY>
5.77e-03 g/l

>  <JCHEM_TRADITIONAL_IUPAC>
nisoldipine

>  <JCHEM_VEBER_RULE>
0

>  <DRUGBANK_ID>
DB00401

>  <DRUG_GROUPS>
approved

>  <GENERIC_NAME>
Nisoldipine

>  <SYNONYMS>
isobutyl methyl 2,6-dimethyl-4-(2-nitrophenyl)-1,4-dihydropyridine-3,5-dicarboxylate; Nisoldipin; Nisoldipina; Nisoldipine; Nisoldipino; Nisoldipinum

>  <BRANDS>
Baymycard; Baymycard RR; Bo Ping; Di Yi Xin; Ji Ni Le Er; Ninobarucin; Nisomynard; Riohard; Ruidi; Sular; Syscor

$$$$
Eszopiclone
 OpenBabel02121510022D

 27 30  0  0  1  0  0  0  0  0999 V2000
    7.6410   -1.8750    0.0000 Cl  0  0  0  0  0  0  0  0  0  0  0  0
    4.1160   -0.4270    0.0000 O   0  0  0  0  0  0  0  0  0  0  0  0
    2.7580    0.0170    0.0000 O   0  0  0  0  0  0  0  0  0  0  0  0
    4.1160   -3.3240    0.0000 O   0  0  0  0  0  0  0  0  0  0  0  0
    3.8210    0.9710    0.0000 N   0  0  0  0  0  0  0  0  0  0  0  0
    4.3340    2.5390    0.0000 N   0  0  0  0  0  0  0  0  0  0  0  0
    4.3410   -1.8750    0.0000 N   0  0  0  0  0  0  0  0  0  0  0  0
    2.3640   -1.0500    0.0000 N   0  0  0  0  0  0  0  0  0  0  0  0
    2.3640   -2.7000    0.0000 N   0  0  0  0  0  0  0  0  0  0  0  0
    5.5790   -2.5900    0.0000 N   0  0  0  0  0  0  0  0  0  0  0  0
    4.6290    1.1410    0.0000 C   0  0  0  0  0  0  0  0  0  0  0  0
    3.2700    1.5850    0.0000 C   0  0  0  0  0  0  0  0  0  0  0  0
    4.8850    1.9250    0.0000 C   0  0  0  0  0  0  0  0  0  0  0  0
    3.5270    2.3690    0.0000 C   0  0  0  0  0  0  0  0  0  0  0  0
    3.8600   -1.2120    0.0000 C   0  0  2  0  0  0  0  0  0  0  0  0
    3.5650    0.1870    0.0000 C   0  0  0  0  0  0  0  0  0  0  0  0
    4.5900    3.3240    0.0000 C   0  0  0  0  0  0  0  0  0  0  0  0
    3.0790   -1.4630    0.0000 C   0  0  0  0  0  0  0  0  0  0  0  0
    3.0790   -2.2880    0.0000 C   0  0  0  0  0  0  0  0  0  0  0  0
    3.8600   -2.5390    0.0000 C   0  0  0  0  0  0  0  0  0  0  0  0
    5.1660   -1.8750    0.0000 C   0  0  0  0  0  0  0  0  0  0  0  0
    5.5790   -1.1610    0.0000 C   0  0  0  0  0  0  0  0  0  0  0  0
    1.6500   -1.4630    0.0000 C   0  0  0  0  0  0  0  0  0  0  0  0
    1.6500   -2.2880    0.0000 C   0  0  0  0  0  0  0  0  0  0  0  0
    6.4040   -1.1610    0.0000 C   0  0  0  0  0  0  0  0  0  0  0  0
    6.4040   -2.5900    0.0000 C   0  0  0  0  0  0  0  0  0  0  0  0
    6.8160   -1.8750    0.0000 C   0  0  0  0  0  0  0  0  0  0  0  0
  1 27  1  0  0  0  0
  2 16  1  0  0  0  0
  3 16  2  0  0  0  0
  4 20  2  0  0  0  0
  5 11  1  0  0  0  0
  5 12  1  0  0  0  0
  5 16  1  0  0  0  0
  6 13  1  0  0  0  0
  6 14  1  0  0  0  0
  6 17  1  0  0  0  0
  7 15  1  0  0  0  0
  7 20  1  0  0  0  0
  7 21  1  0  0  0  0
  8 18  1  0  0  0  0
  8 23  2  0  0  0  0
  9 19  1  0  0  0  0
  9 24  2  0  0  0  0
 10 21  1  0  0  0  0
 10 26  2  0  0  0  0
 11 13  1  0  0  0  0
 12 14  1  0  0  0  0
 15  2  1  6  0  0  0
 15 18  1  0  0  0  0
 18 19  2  0  0  0  0
 19 20  1  0  0  0  0
 21 22  2  0  0  0  0
 22 25  1  0  0  0  0
 23 24  1  0  0  0  0
 25 27  2  0  0  0  0
 26 27  1  0  0  0  0
M  END
>  <DATABASE_ID>
DB00402

>  <DATABASE_NAME>
drugbank

>  <SMILES>
Clc1ccc(nc1)N1[C@@H](OC(=O)N2CCN(CC2)C)c2nccnc2C1=O

>  <INCHI_IDENTIFIER>
InChI=1S/C17H17ClN6O3/c1-22-6-8-23(9-7-22)17(26)27-16-14-13(19-4-5-20-14)15(25)24(16)12-3-2-11(18)10-21-12/h2-5,10,16H,6-9H2,1H3/t16-/m0/s1

>  <INCHI_KEY>
InChIKey=GBBSUAFBMRNDJC-INIZCTEOSA-N

>  <JCHEM_ACCEPTOR_COUNT>
6

>  <JCHEM_AVERAGE_POLARIZABILITY>
37.666054

>  <JCHEM_BIOAVAILABILITY>
1

>  <JCHEM_DONOR_COUNT>
0

>  <JCHEM_EXACT_MASS>
388.10507

>  <JCHEM_FORMAL_CHARGE>
0

>  <JCHEM_FORMULA>
C17H17ClN6O3

>  <JCHEM_GHOSE_FILTER>
1

>  <JCHEM_IUPAC>
(5S)-6-(5-chloropyridin-2-yl)-7-oxo-5H,6H,7H-pyrrolo[3,4-b]pyrazin-5-yl 4-methylpiperazine-1-carboxylate

>  <ALOGPS_LOGP>
0.97000003

>  <JCHEM_LOGP>
0.80654305

>  <ALOGPS_LOGS>
-2.6400001

>  <JCHEM_MASS>
388.80801

>  <JCHEM_MDDR_LIKE_RULE>
0

>  <JCHEM_NUMBER_OF_RINGS>
4

>  <JCHEM_PHYSIOLOGICAL_CHARGE>
0

>  <JCHEM_PKA_STRONGEST_ACIDIC>
13.038308

>  <JCHEM_PKA_STRONGEST_BASIC>
6.8874774

>  <JCHEM_POLAR_SURFACE_AREA>
91.760002

>  <JCHEM_REFRACTIVITY>
95.885498

>  <JCHEM_ROTATABLE_BOND_COUNT>
3

>  <JCHEM_RULE_OF_FIVE>
1

>  <ALOGPS_SOLUBILITY>
8.85e-01 g/l

>  <JCHEM_TRADITIONAL_IUPAC>
eszopiclone

>  <JCHEM_VEBER_RULE>
0

>  <DRUGBANK_ID>
DB00402

>  <DRUG_GROUPS>
approved

>  <GENERIC_NAME>
Eszopiclone

>  <SYNONYMS>
(+)-(5S)-6-(5-chloropyridin-2-yl)-7-oxo-6,7-dihydro-5H-pyrrolo[3,4-b]pyrazin-5-yl-4-methylpiperazine-1-carboxylate; (S)-6-(5-Chloro-2-pyridinyl)- 7-oxo- 6,7-dihydro- 5H-pyrrolo[3,4-b]pyrazin-5-yl- 4-methyl- 1-piperazinecarboxylate; 1-Piperazinecarobxylic acid,4-methyl-,(5S)-6-(5-chloro-2-pyridinyl)-6,7-dihydro-7-oxo-5H-pyrrolo[3,4-b]pyrazin-5-yl ester; Esopiclone; Estorra; Eszopiclone

>  <BRANDS>
Dorplen; Esleep; Eszop; Fulnite; Inductal; Isoklon; Lunesta; Nirvan; Noptic; Plessir; Sanilent; Sleepil; Sominex; Sono; Valnoc; Wen Fei; Zopilone; Zopinon

$$$$
Alprazolam
 OpenBabel02121510022D

 22 25  0  0  0  0  0  0  0  0999 V2000
    1.6500   -0.2320    0.0000 Cl  0  0  0  0  0  0  0  0  0  0  0  0
    4.8160   -1.3270    0.0000 N   0  0  0  0  0  0  0  0  0  0  0  0
    5.2280    0.4800    0.0000 N   0  0  0  0  0  0  0  0  0  0  0  0
    6.1240   -1.5630    0.0000 N   0  0  0  0  0  0  0  0  0  0  0  0
    5.7350   -2.2850    0.0000 N   0  0  0  0  0  0  0  0  0  0  0  0
    4.0730   -0.9690    0.0000 C   0  0  0  0  0  0  0  0  0  0  0  0
    3.8890   -0.1640    0.0000 C   0  0  0  0  0  0  0  0  0  0  0  0
    5.5590   -0.9690    0.0000 C   0  0  0  0  0  0  0  0  0  0  0  0
    4.4030    0.4800    0.0000 C   0  0  0  0  0  0  0  0  0  0  0  0
    5.7430   -0.1640    0.0000 C   0  0  0  0  0  0  0  0  0  0  0  0
    4.9280   -2.1390    0.0000 C   0  0  0  0  0  0  0  0  0  0  0  0
    3.4520   -1.5630    0.0000 C   0  0  0  0  0  0  0  0  0  0  0  0
    3.0720    0.1010    0.0000 C   0  0  0  0  0  0  0  0  0  0  0  0
    4.0450    1.2240    0.0000 C   0  0  0  0  0  0  0  0  0  0  0  0
    2.6290   -1.3160    0.0000 C   0  0  0  0  0  0  0  0  0  0  0  0
    2.4370   -0.4780    0.0000 C   0  0  0  0  0  0  0  0  0  0  0  0
    4.3330   -2.7100    0.0000 C   0  0  0  0  0  0  0  0  0  0  0  0
    3.2230    1.2850    0.0000 C   0  0  0  0  0  0  0  0  0  0  0  0
    4.5100    1.9050    0.0000 C   0  0  0  0  0  0  0  0  0  0  0  0
    2.8650    2.0290    0.0000 C   0  0  0  0  0  0  0  0  0  0  0  0
    4.1520    2.6490    0.0000 C   0  0  0  0  0  0  0  0  0  0  0  0
    3.3300    2.7100    0.0000 C   0  0  0  0  0  0  0  0  0  0  0  0
  1 16  1  0  0  0  0
  2  6  1  0  0  0  0
  2  8  1  0  0  0  0
  2 11  1  0  0  0  0
  3  9  2  0  0  0  0
  3 10  1  0  0  0  0
  4  5  1  0  0  0  0
  4  8  2  0  0  0  0
  5 11  2  0  0  0  0
  6  7  2  0  0  0  0
  6 12  1  0  0  0  0
  7  9  1  0  0  0  0
  7 13  1  0  0  0  0
  8 10  1  0  0  0  0
  9 14  1  0  0  0  0
 11 17  1  0  0  0  0
 12 15  2  0  0  0  0
 13 16  2  0  0  0  0
 14 18  2  0  0  0  0
 14 19  1  0  0  0  0
 15 16  1  0  0  0  0
 18 20  1  0  0  0  0
 19 21  2  0  0  0  0
 20 22  2  0  0  0  0
 21 22  1  0  0  0  0
M  END
>  <DATABASE_ID>
DB00404

>  <DATABASE_NAME>
drugbank

>  <SMILES>
Clc1cc2c(-n3c(nnc3C)CN=C2c2ccccc2)cc1

>  <INCHI_IDENTIFIER>
InChI=1S/C17H13ClN4/c1-11-20-21-16-10-19-17(12-5-3-2-4-6-12)14-9-13(18)7-8-15(14)22(11)16/h2-9H,10H2,1H3

>  <INCHI_KEY>
InChIKey=VREFGVBLTWBCJP-UHFFFAOYSA-N

>  <JCHEM_ACCEPTOR_COUNT>
3

>  <JCHEM_AVERAGE_POLARIZABILITY>
32.219402

>  <JCHEM_BIOAVAILABILITY>
1

>  <JCHEM_DONOR_COUNT>
0

>  <JCHEM_EXACT_MASS>
308.08289

>  <JCHEM_FORMAL_CHARGE>
0

>  <JCHEM_FORMULA>
C17H13ClN4

>  <JCHEM_GHOSE_FILTER>
1

>  <JCHEM_IUPAC>
12-chloro-3-methyl-9-phenyl-2,4,5,8-tetraazatricyclo[8.4.0.0^{2,6}]tetradeca-1(10),3,5,8,11,13-hexaene

>  <ALOGPS_LOGP>
2.23

>  <JCHEM_LOGP>
2.3741

>  <ALOGPS_LOGS>
-3.98

>  <JCHEM_MASS>
308.76501

>  <JCHEM_MDDR_LIKE_RULE>
0

>  <JCHEM_NUMBER_OF_RINGS>
4

>  <JCHEM_PHYSIOLOGICAL_CHARGE>
0

>  <JCHEM_PKA_STRONGEST_ACIDIC>
18.299637

>  <JCHEM_PKA_STRONGEST_BASIC>
5.0766802

>  <JCHEM_POLAR_SURFACE_AREA>
43.07

>  <JCHEM_REFRACTIVITY>
98.878998

>  <JCHEM_ROTATABLE_BOND_COUNT>
1

>  <JCHEM_RULE_OF_FIVE>
1

>  <ALOGPS_SOLUBILITY>
3.24e-02 g/l

>  <JCHEM_TRADITIONAL_IUPAC>
alprazolam

>  <JCHEM_VEBER_RULE>
0

>  <DRUGBANK_ID>
DB00404

>  <DRUG_GROUPS>
approved; illicit; investigational

>  <GENERIC_NAME>
Alprazolam

>  <SYNONYMS>
Alprazolam

>  <BRANDS>
Alplax; Alprazolan; Alpronax; Alprox; Alviz; Cassadan; Esparon; Niravam; Ralozam; Restyl; Solanax; Tafil; Trankimazin; Tranquinal; Xanax; Xanax XR; Xanor

$$$$
Loxapine
 OpenBabel02121510022D

 23 26  0  0  0  0  0  0  0  0999 V2000
    1.5840   -1.1300    0.0000 Cl  0  0  0  0  0  0  0  0  0  0  0  0
    4.6240   -2.1820    0.0000 O   0  0  0  0  0  0  0  0  0  0  0  0
    3.8840    0.2670    0.0000 N   0  0  0  0  0  0  0  0  0  0  0  0
    3.1970    1.6950    0.0000 N   0  0  0  0  0  0  0  0  0  0  0  0
    5.0200   -0.4460    0.0000 N   0  0  0  0  0  0  0  0  0  0  0  0
    4.3300    0.9220    0.0000 C   0  0  0  0  0  0  0  0  0  0  0  0
    3.0940    0.3260    0.0000 C   0  0  0  0  0  0  0  0  0  0  0  0
    3.9870    1.6350    0.0000 C   0  0  0  0  0  0  0  0  0  0  0  0
    2.7500    1.0400    0.0000 C   0  0  0  0  0  0  0  0  0  0  0  0
    4.2280   -0.4460    0.0000 C   0  0  0  0  0  0  0  0  0  0  0  0
    2.8530    2.4080    0.0000 C   0  0  0  0  0  0  0  0  0  0  0  0
    3.7340   -1.0660    0.0000 C   0  0  0  0  0  0  0  0  0  0  0  0
    3.9100   -1.8380    0.0000 C   0  0  0  0  0  0  0  0  0  0  0  0
    5.5140   -1.0660    0.0000 C   0  0  0  0  0  0  0  0  0  0  0  0
    2.9490   -0.8100    0.0000 C   0  0  0  0  0  0  0  0  0  0  0  0
    5.3380   -1.8380    0.0000 C   0  0  0  0  0  0  0  0  0  0  0  0
    3.3140   -2.4080    0.0000 C   0  0  0  0  0  0  0  0  0  0  0  0
    2.3400   -1.3670    0.0000 C   0  0  0  0  0  0  0  0  0  0  0  0
    2.5240   -2.1710    0.0000 C   0  0  0  0  0  0  0  0  0  0  0  0
    6.2980   -0.8100    0.0000 C   0  0  0  0  0  0  0  0  0  0  0  0
    5.9340   -2.4080    0.0000 C   0  0  0  0  0  0  0  0  0  0  0  0
    6.9070   -1.3670    0.0000 C   0  0  0  0  0  0  0  0  0  0  0  0
    6.7240   -2.1710    0.0000 C   0  0  0  0  0  0  0  0  0  0  0  0
  1 18  1  0  0  0  0
  2 13  1  0  0  0  0
  2 16  1  0  0  0  0
  3  6  1  0  0  0  0
  3  7  1  0  0  0  0
  3 10  1  0  0  0  0
  4  8  1  0  0  0  0
  4  9  1  0  0  0  0
  4 11  1  0  0  0  0
  5 10  2  0  0  0  0
  5 14  1  0  0  0  0
  6  8  1  0  0  0  0
  7  9  1  0  0  0  0
 10 12  1  0  0  0  0
 12 13  2  0  0  0  0
 12 15  1  0  0  0  0
 13 17  1  0  0  0  0
 14 16  2  0  0  0  0
 14 20  1  0  0  0  0
 15 18  2  0  0  0  0
 16 21  1  0  0  0  0
 17 19  2  0  0  0  0
 18 19  1  0  0  0  0
 20 22  2  0  0  0  0
 21 23  2  0  0  0  0
 22 23  1  0  0  0  0
M  END
>  <DATABASE_ID>
DB00408

>  <DATABASE_NAME>
drugbank

>  <SMILES>
Clc1cc2c(Oc3c(N=C2N2CCN(CC2)C)cccc3)cc1

>  <INCHI_IDENTIFIER>
InChI=1S/C18H18ClN3O/c1-21-8-10-22(11-9-21)18-14-12-13(19)6-7-16(14)23-17-5-3-2-4-15(17)20-18/h2-7,12H,8-11H2,1H3

>  <INCHI_KEY>
InChIKey=XJGVXQDUIWGIRW-UHFFFAOYSA-N

>  <JCHEM_ACCEPTOR_COUNT>
3

>  <JCHEM_AVERAGE_POLARIZABILITY>
34.985661

>  <JCHEM_BIOAVAILABILITY>
1

>  <JCHEM_DONOR_COUNT>
0

>  <JCHEM_EXACT_MASS>
327.11383

>  <JCHEM_FORMAL_CHARGE>
0

>  <JCHEM_FORMULA>
C18H18ClN3O

>  <JCHEM_GHOSE_FILTER>
1

>  <JCHEM_IUPAC>
13-chloro-10-(4-methylpiperazin-1-yl)-2-oxa-9-azatricyclo[9.4.0.0^{3,8}]pentadeca-1(11),3(8),4,6,9,12,14-heptaene

>  <ALOGPS_LOGP>
3.1800001

>  <JCHEM_LOGP>
3.4606025

>  <ALOGPS_LOGS>
-3.5

>  <JCHEM_MASS>
327.80801

>  <JCHEM_MDDR_LIKE_RULE>
0

>  <JCHEM_NUMBER_OF_RINGS>
4

>  <JCHEM_PHYSIOLOGICAL_CHARGE>
1

>  <JCHEM_PKA_STRONGEST_BASIC>
7.1751423

>  <JCHEM_POLAR_SURFACE_AREA>
28.07

>  <JCHEM_REFRACTIVITY>
95.111099

>  <JCHEM_ROTATABLE_BOND_COUNT>
0

>  <JCHEM_RULE_OF_FIVE>
1

>  <ALOGPS_SOLUBILITY>
1.03e-01 g/l

>  <JCHEM_TRADITIONAL_IUPAC>
loxapine

>  <JCHEM_VEBER_RULE>
1

>  <DRUGBANK_ID>
DB00408

>  <DRUG_GROUPS>
approved

>  <GENERIC_NAME>
Loxapine

>  <SYNONYMS>
2-Chloro-11-(4-methyl-1-piperazinyl)dibenz[b,f][1,4]oxazepine; Loxapina; Loxapine; Loxapinum; oxilapine

>  <BRANDS>
Adasuve; Cloxazepine; Lopac; Losagen; Loxapac; Loxapine; Loxitane; Rosup

$$$$
Carbachol
 OpenBabel02121510022D

 11  9  0  0  0  0  0  0  0  0999 V2000
    0.4120    0.5720    0.0000 C   0  0  0  0  0  0  0  0  0  0  0  0
    0.0000    1.2860    0.0000 N   0  3  0  0  0  0  0  0  0  0  0  0
   -0.4120    2.0010    0.0000 C   0  0  0  0  0  0  0  0  0  0  0  0
   -0.7140    0.8740    0.0000 C   0  0  0  0  0  0  0  0  0  0  0  0
    0.7140    1.6980    0.0000 C   0  0  0  0  0  0  0  0  0  0  0  0
    0.0000   -0.1430    0.0000 C   0  0  0  0  0  0  0  0  0  0  0  0
    0.4120   -0.8570    0.0000 O   0  0  0  0  0  0  0  0  0  0  0  0
    0.0000   -1.5720    0.0000 C   0  0  0  0  0  0  0  0  0  0  0  0
    0.4120   -2.2860    0.0000 N   0  0  0  0  0  0  0  0  0  0  0  0
   -0.8250   -1.5720    0.0000 O   0  0  0  0  0  0  0  0  0  0  0  0
    2.9540    0.0000    0.0000 Cl  0  5  0  0  0  0  0  0  0  0  0  0
  1  2  1  0  0  0  0
  1  6  1  0  0  0  0
  2  3  1  0  0  0  0
  2  4  1  0  0  0  0
  2  5  1  0  0  0  0
  6  7  1  0  0  0  0
  7  8  1  0  0  0  0
  8  9  1  0  0  0  0
  8 10  2  0  0  0  0
M  CHG  2   2   1  11  -1
M  END
>  <DATABASE_ID>
DB00411

>  <DATABASE_NAME>
drugbank

>  <SMILES>
[Cl-].O(CC[N+](C)(C)C)C(=O)N

>  <INCHI_IDENTIFIER>
InChI=1S/C6H14N2O2.ClH/c1-8(2,3)4-5-10-6(7)9;/h4-5H2,1-3H3,(H-,7,9);1H

>  <INCHI_KEY>
InChIKey=AIXAANGOTKPUOY-UHFFFAOYSA-N

>  <JCHEM_ACCEPTOR_COUNT>
1

>  <JCHEM_AVERAGE_POLARIZABILITY>
16.016047

>  <JCHEM_BIOAVAILABILITY>
1

>  <JCHEM_DONOR_COUNT>
1

>  <JCHEM_EXACT_MASS>
182.0822

>  <JCHEM_FORMAL_CHARGE>
0

>  <JCHEM_FORMULA>
C6H15ClN2O2

>  <JCHEM_GHOSE_FILTER>
0

>  <JCHEM_IUPAC>
2-(trimethylazaniumyl)ethyl carbamate chloride

>  <ALOGPS_LOGP>
-3.55

>  <JCHEM_LOGP>
-4.5546894

>  <ALOGPS_LOGS>
-2.29

>  <JCHEM_MASS>
182.649

>  <JCHEM_MDDR_LIKE_RULE>
0

>  <JCHEM_NUMBER_OF_RINGS>
0

>  <JCHEM_PHYSIOLOGICAL_CHARGE>
1

>  <JCHEM_PKA_STRONGEST_ACIDIC>
15.226036

>  <JCHEM_POLAR_SURFACE_AREA>
52.32

>  <JCHEM_REFRACTIVITY>
50.022202

>  <JCHEM_ROTATABLE_BOND_COUNT>
4

>  <JCHEM_RULE_OF_FIVE>
1

>  <ALOGPS_SOLUBILITY>
9.48e-01 g/l

>  <JCHEM_TRADITIONAL_IUPAC>
lentine chloride

>  <JCHEM_VEBER_RULE>
0

>  <DRUGBANK_ID>
DB00411

>  <DRUG_GROUPS>
approved

>  <GENERIC_NAME>
Carbachol

>  <SYNONYMS>
Carbachol chloride; Carbamylcholine; Choline carbamate chloride; Choline chlorine carbamate; Karbachol; Karbamoylcholin chlorid

>  <BRANDS>
Carbastat; Carboptic; Isopto Carbachol; Miostat; Mioticol

$$$$
Rosiglitazone
 OpenBabel02121510022D

 25 27  0  0  1  0  0  0  0  0999 V2000
    7.2600    0.4960    0.0000 S   0  0  0  0  0  0  0  0  0  0  0  0
    3.6010    0.0780    0.0000 O   0  0  0  0  0  0  0  0  0  0  0  0
    8.0990    2.4590    0.0000 O   0  0  0  0  0  0  0  0  0  0  0  0
    8.4020   -0.4300    0.0000 O   0  0  0  0  0  0  0  0  0  0  0  0
    1.4580    0.4910    0.0000 N   0  0  0  0  0  0  0  0  0  0  0  0
    8.4790    1.0380    0.0000 N   0  0  0  0  0  0  0  0  0  0  0  0
    0.0290    0.4910    0.0000 N   0  0  0  0  0  0  0  0  0  0  0  0
    7.1740    1.3160    0.0000 C   0  0  3  0  0  0  0  0  0  0  0  0
    6.4590    1.7280    0.0000 C   0  0  0  0  0  0  0  0  0  0  0  0
    5.7450    1.3160    0.0000 C   0  0  0  0  0  0  0  0  0  0  0  0
    7.9270    1.6520    0.0000 C   0  0  0  0  0  0  0  0  0  0  0  0
    2.1720    0.0780    0.0000 C   0  0  0  0  0  0  0  0  0  0  0  0
    5.7450    0.4910    0.0000 C   0  0  0  0  0  0  0  0  0  0  0  0
    5.0300    1.7290    0.0000 C   0  0  0  0  0  0  0  0  0  0  0  0
    2.8870    0.4910    0.0000 C   0  0  0  0  0  0  0  0  0  0  0  0
    4.3160    0.4910    0.0000 C   0  0  0  0  0  0  0  0  0  0  0  0
    5.0300    0.0780    0.0000 C   0  0  0  0  0  0  0  0  0  0  0  0
    4.3160    1.3160    0.0000 C   0  0  0  0  0  0  0  0  0  0  0  0
    8.0670    0.3240    0.0000 C   0  0  0  0  0  0  0  0  0  0  0  0
    0.7430    0.0780    0.0000 C   0  0  0  0  0  0  0  0  0  0  0  0
    1.4580    1.3160    0.0000 C   0  0  0  0  0  0  0  0  0  0  0  0
    0.7430   -0.7460    0.0000 C   0  0  0  0  0  0  0  0  0  0  0  0
    0.0290   -1.1590    0.0000 C   0  0  0  0  0  0  0  0  0  0  0  0
   -0.6860    0.0780    0.0000 C   0  0  0  0  0  0  0  0  0  0  0  0
   -0.6860   -0.7460    0.0000 C   0  0  0  0  0  0  0  0  0  0  0  0
  1  8  1  0  0  0  0
  1 19  1  0  0  0  0
  2 15  1  0  0  0  0
  2 16  1  0  0  0  0
  3 11  2  0  0  0  0
  4 19  2  0  0  0  0
  5 12  1  0  0  0  0
  5 20  1  0  0  0  0
  5 21  1  0  0  0  0
  6 11  1  0  0  0  0
  6 19  1  0  0  0  0
  7 20  1  0  0  0  0
  7 24  2  0  0  0  0
  8  9  1  0  0  0  0
  8 11  1  0  0  0  0
  9 10  1  0  0  0  0
 10 13  2  0  0  0  0
 10 14  1  0  0  0  0
 12 15  1  0  0  0  0
 13 17  1  0  0  0  0
 14 18  2  0  0  0  0
 16 17  2  0  0  0  0
 16 18  1  0  0  0  0
 20 22  2  0  0  0  0
 22 23  1  0  0  0  0
 23 25  2  0  0  0  0
 24 25  1  0  0  0  0
M  END
>  <DATABASE_ID>
DB00412

>  <DATABASE_NAME>
drugbank

>  <SMILES>
S1C(Cc2ccc(OCCN(C)c3ncccc3)cc2)C(=O)NC1=O

>  <INCHI_IDENTIFIER>
InChI=1/C18H19N3O3S/c1-21(16-4-2-3-9-19-16)10-11-24-14-7-5-13(6-8-14)12-15-17(22)20-18(23)25-15/h2-9,15H,10-12H2,1H3,(H,20,22,23)

>  <INCHI_KEY>
InChIKey=YASAKCUCGLMORW-UHFFFAOYNA-N

>  <JCHEM_ACCEPTOR_COUNT>
5

>  <JCHEM_AVERAGE_POLARIZABILITY>
37.802628

>  <JCHEM_BIOAVAILABILITY>
1

>  <JCHEM_DONOR_COUNT>
1

>  <JCHEM_EXACT_MASS>
357.11472

>  <JCHEM_FORMAL_CHARGE>
0

>  <JCHEM_FORMULA>
C18H19N3O3S

>  <JCHEM_GHOSE_FILTER>
1

>  <JCHEM_IUPAC>
5-[(4-{2-[methyl(pyridin-2-yl)amino]ethoxy}phenyl)methyl]-1,3-thiazolidine-2,4-dione

>  <ALOGPS_LOGP>
2.95

>  <JCHEM_LOGP>
2.446348

>  <ALOGPS_LOGS>
-3.97

>  <JCHEM_MASS>
357.427

>  <JCHEM_MDDR_LIKE_RULE>
1

>  <JCHEM_NUMBER_OF_RINGS>
3

>  <JCHEM_PHYSIOLOGICAL_CHARGE>
-1

>  <JCHEM_PKA>
19.05995

>  <JCHEM_PKA_STRONGEST_ACIDIC>
6.8443122

>  <JCHEM_PKA_STRONGEST_BASIC>
6.228631

>  <JCHEM_POLAR_SURFACE_AREA>
71.529999

>  <JCHEM_REFRACTIVITY>
97.789902

>  <JCHEM_ROTATABLE_BOND_COUNT>
7

>  <JCHEM_RULE_OF_FIVE>
1

>  <ALOGPS_SOLUBILITY>
3.80e-02 g/l

>  <JCHEM_TRADITIONAL_IUPAC>
rosiglitazone

>  <JCHEM_VEBER_RULE>
0

>  <DRUGBANK_ID>
DB00412

>  <DRUG_GROUPS>
approved; investigational

>  <GENERIC_NAME>
Rosiglitazone

>  <SYNONYMS>
(±)-5-[p-[2-(methyl-2-pyridylamino)ethoxy]benzyl]-2,4-thiazolidinedione; (RS)-5-{4-[2-(Methyl-2-pyridylamino)ethoxy]benzyl}-2,4-thiazolidinedion; Rosiglitazon; Rosiglitazona; Rosiglitazone; Rosiglitazonum

>  <BRANDS>
Avandia; Blutab; DH-Rosidia; Diaben; Diaglinex; Gaudil; Gliximina; Naidi; Rogelin; Roglit; Romerol; Rosit; Rosix; Rossini; Sensulin; Sheng Ao; Sheng Min

>  <SALTS>
Rosiglitazone Maleate

$$$$
Pramipexole
 OpenBabel02121510022D

 14 15  0  0  1  0  0  0  0  0999 V2000
   -0.5890    0.9430    0.0000 C   0  0  0  0  0  0  0  0  0  0  0  0
   -1.3040    0.5300    0.0000 C   0  0  2  0  0  0  0  0  0  0  0  0
   -1.3040   -0.2950    0.0000 C   0  0  0  0  0  0  0  0  0  0  0  0
   -0.5890   -0.7070    0.0000 C   0  0  0  0  0  0  0  0  0  0  0  0
    0.1250   -0.2950    0.0000 C   0  0  0  0  0  0  0  0  0  0  0  0
    0.1250    0.5300    0.0000 C   0  0  0  0  0  0  0  0  0  0  0  0
    0.9100    0.7850    0.0000 S   0  0  0  0  0  0  0  0  0  0  0  0
    0.9100   -0.5500    0.0000 N   0  0  0  0  0  0  0  0  0  0  0  0
    1.3950    0.1180    0.0000 C   0  0  0  0  0  0  0  0  0  0  0  0
   -2.0180    0.9430    0.0000 N   0  0  0  0  0  0  0  0  0  0  0  0
    2.2200    0.1180    0.0000 N   0  0  0  0  0  0  0  0  0  0  0  0
   -2.7330    0.5300    0.0000 C   0  0  0  0  0  0  0  0  0  0  0  0
   -3.4470    0.9430    0.0000 C   0  0  0  0  0  0  0  0  0  0  0  0
   -4.1620    0.5300    0.0000 C   0  0  0  0  0  0  0  0  0  0  0  0
  1  2  1  0  0  0  0
  1  6  1  0  0  0  0
  2  3  1  0  0  0  0
  2 10  1  6  0  0  0
  3  4  1  0  0  0  0
  4  5  1  0  0  0  0
  5  6  2  0  0  0  0
  5  8  1  0  0  0  0
  6  7  1  0  0  0  0
  7  9  1  0  0  0  0
  8  9  2  0  0  0  0
  9 11  1  0  0  0  0
 10 12  1  0  0  0  0
 12 13  1  0  0  0  0
 13 14  1  0  0  0  0
M  END
>  <DATABASE_ID>
DB00413

>  <DATABASE_NAME>
drugbank

>  <SMILES>
s1c2C[C@@H](NCCC)CCc2nc1N

>  <INCHI_IDENTIFIER>
InChI=1S/C10H17N3S/c1-2-5-12-7-3-4-8-9(6-7)14-10(11)13-8/h7,12H,2-6H2,1H3,(H2,11,13)/t7-/m0/s1

>  <INCHI_KEY>
InChIKey=FASDKYOPVNHBLU-ZETCQYMHSA-N

>  <JCHEM_ACCEPTOR_COUNT>
3

>  <JCHEM_AVERAGE_POLARIZABILITY>
24.468695

>  <JCHEM_BIOAVAILABILITY>
1

>  <JCHEM_DONOR_COUNT>
2

>  <JCHEM_EXACT_MASS>
211.11432

>  <JCHEM_FORMAL_CHARGE>
0

>  <JCHEM_FORMULA>
C10H17N3S

>  <JCHEM_GHOSE_FILTER>
1

>  <JCHEM_IUPAC>
(6S)-6-N-propyl-4,5,6,7-tetrahydro-1,3-benzothiazole-2,6-diamine

>  <ALOGPS_LOGP>
2.1800001

>  <JCHEM_LOGP>
1.7642827

>  <ALOGPS_LOGS>
-3.1800001

>  <JCHEM_MASS>
211.327

>  <JCHEM_MDDR_LIKE_RULE>
0

>  <JCHEM_NUMBER_OF_RINGS>
2

>  <JCHEM_PHYSIOLOGICAL_CHARGE>
1

>  <JCHEM_PKA_STRONGEST_ACIDIC>
17.661047

>  <JCHEM_PKA_STRONGEST_BASIC>
10.31044

>  <JCHEM_POLAR_SURFACE_AREA>
50.939999

>  <JCHEM_REFRACTIVITY>
59.7672

>  <JCHEM_ROTATABLE_BOND_COUNT>
3

>  <JCHEM_RULE_OF_FIVE>
1

>  <ALOGPS_SOLUBILITY>
1.40e-01 g/l

>  <JCHEM_TRADITIONAL_IUPAC>
(-)-pramipexole

>  <JCHEM_VEBER_RULE>
0

>  <DRUGBANK_ID>
DB00413

>  <DRUG_GROUPS>
approved; investigational

>  <GENERIC_NAME>
Pramipexole

>  <SYNONYMS>
(-)-Pramipexole; (S)-N  6-propyl-4,5,6,7-tetrahydro-1,3-benzothiazole-2,6-diamine; Pramipexol; Pramipexole; Pramipexolum

>  <BRANDS>
Glepark; Medopexol; Miramel; Miraper; Mirapex; Mirapexin; Pexola; Sifrol; Sifrol ER

>  <SALTS>
Pramipexole hydrochloride

$$$$
Ampicillin
 OpenBabel02121510022D

 25 27  0  0  1  0  0  0  0  0999 V2000
    7.6200    0.6770    0.0000 S   0  0  0  0  0  0  0  0  0  0  0  0
    5.4220   -0.9910    0.0000 O   0  0  0  0  0  0  0  0  0  0  0  0
    7.3230   -2.0550    0.0000 O   0  0  0  0  0  0  0  0  0  0  0  0
    8.6820   -1.6140    0.0000 O   0  0  0  0  0  0  0  0  0  0  0  0
    4.4090    0.0020    0.0000 O   0  0  0  0  0  0  0  0  0  0  0  0
    6.8350   -0.4030    0.0000 N   0  0  0  0  0  0  0  0  0  0  0  0
    5.4220    1.0100    0.0000 N   0  0  0  0  0  0  0  0  0  0  0  0
    4.2570    2.1790    0.0000 N   0  0  0  0  0  0  0  0  0  0  0  0
    6.8350    0.4220    0.0000 C   0  0  1  0  0  0  0  0  0  0  0  0
    8.1050    0.0100    0.0000 C   0  0  0  0  0  0  0  0  0  0  0  0
    7.6200   -0.6580    0.0000 C   0  0  2  0  0  0  0  0  0  0  0  0
    6.0040    0.4260    0.0000 C   0  0  1  0  0  0  0  0  0  0  0  0
    6.0040   -0.4060    0.0000 C   0  0  0  0  0  0  0  0  0  0  0  0
    8.7720   -0.4750    0.0000 C   0  0  0  0  0  0  0  0  0  0  0  0
    8.7720    0.4950    0.0000 C   0  0  0  0  0  0  0  0  0  0  0  0
    7.8750   -1.4420    0.0000 C   0  0  0  0  0  0  0  0  0  0  0  0
    4.6240    0.7980    0.0000 C   0  0  0  0  0  0  0  0  0  0  0  0
    4.0420    1.3830    0.0000 C   0  0  1  0  0  0  0  0  0  0  0  0
    3.2450    1.1710    0.0000 C   0  0  0  0  0  0  0  0  0  0  0  0
    3.0300    0.3750    0.0000 C   0  0  0  0  0  0  0  0  0  0  0  0
    2.6620    1.7560    0.0000 C   0  0  0  0  0  0  0  0  0  0  0  0
    2.2320    0.1630    0.0000 C   0  0  0  0  0  0  0  0  0  0  0  0
    1.8650    1.5440    0.0000 C   0  0  0  0  0  0  0  0  0  0  0  0
    1.6500    0.7470    0.0000 C   0  0  0  0  0  0  0  0  0  0  0  0
    6.7340    1.0740    0.0000 H   0  0  0  0  0  0  0  0  0  0  0  0
  1  9  1  0  0  0  0
  1 10  1  0  0  0  0
  2 13  2  0  0  0  0
  3 16  1  0  0  0  0
  4 16  2  0  0  0  0
  5 17  2  0  0  0  0
  6  9  1  0  0  0  0
  6 11  1  0  0  0  0
  6 13  1  0  0  0  0
  7 17  1  0  0  0  0
  9 12  1  0  0  0  0
  9 25  1  6  0  0  0
 10 11  1  0  0  0  0
 10 14  1  0  0  0  0
 10 15  1  0  0  0  0
 11 16  1  6  0  0  0
 12  7  1  1  0  0  0
 12 13  1  0  0  0  0
 18 17  1  1  0  0  0
 18  8  1  0  0  0  0
 18 19  1  0  0  0  0
 19 20  2  0  0  0  0
 19 21  1  0  0  0  0
 20 22  1  0  0  0  0
 21 23  2  0  0  0  0
 22 24  2  0  0  0  0
 23 24  1  0  0  0  0
M  END
>  <DATABASE_ID>
DB00415

>  <DATABASE_NAME>
drugbank

>  <SMILES>
S1[C@H]2N([C@@H](C(O)=O)C1(C)C)C(=O)[C@H]2NC(=O)[C@H](N)c1ccccc1

>  <INCHI_IDENTIFIER>
InChI=1S/C16H19N3O4S/c1-16(2)11(15(22)23)19-13(21)10(14(19)24-16)18-12(20)9(17)8-6-4-3-5-7-8/h3-7,9-11,14H,17H2,1-2H3,(H,18,20)(H,22,23)/t9-,10-,11+,14-/m1/s1

>  <INCHI_KEY>
InChIKey=AVKUERGKIZMTKX-NJBDSQKTSA-N

>  <JCHEM_ACCEPTOR_COUNT>
5

>  <JCHEM_AVERAGE_POLARIZABILITY>
34.541206

>  <JCHEM_BIOAVAILABILITY>
1

>  <JCHEM_DONOR_COUNT>
3

>  <JCHEM_EXACT_MASS>
349.10962

>  <JCHEM_FORMAL_CHARGE>
0

>  <JCHEM_FORMULA>
C16H19N3O4S

>  <JCHEM_GHOSE_FILTER>
0

>  <JCHEM_IUPAC>
(2S,5R,6R)-6-[(2R)-2-amino-2-phenylacetamido]-3,3-dimethyl-7-oxo-4-thia-1-azabicyclo[3.2.0]heptane-2-carboxylic acid

>  <ALOGPS_LOGP>
0.88

>  <JCHEM_LOGP>
-2.0066502

>  <ALOGPS_LOGS>
-2.76

>  <JCHEM_MASS>
349.405

>  <JCHEM_MDDR_LIKE_RULE>
0

>  <JCHEM_NUMBER_OF_RINGS>
3

>  <JCHEM_PHYSIOLOGICAL_CHARGE>
0

>  <JCHEM_PKA>
11.966024

>  <JCHEM_PKA_STRONGEST_ACIDIC>
3.2380536

>  <JCHEM_PKA_STRONGEST_BASIC>
7.4383616

>  <JCHEM_POLAR_SURFACE_AREA>
112.73

>  <JCHEM_REFRACTIVITY>
87.523499

>  <JCHEM_ROTATABLE_BOND_COUNT>
4

>  <JCHEM_RULE_OF_FIVE>
1

>  <ALOGPS_SOLUBILITY>
6.05e-01 g/l

>  <JCHEM_TRADITIONAL_IUPAC>
ampicillin

>  <JCHEM_VEBER_RULE>
0

>  <DRUGBANK_ID>
DB00415

>  <DRUG_GROUPS>
approved

>  <GENERIC_NAME>
Ampicillin

>  <SYNONYMS>
ABPC; Aminobenzylpenicillin; AMP; Ampicilina; Ampicillin; Ampicillin Acid; Ampicillin Anhydrous; Ampicilline; Ampicillinum; D-(−)-6-(α-aminophenylacetamido)penicillanic acid; D-(−)-ampicillin

>  <BRANDS>
Austrapen; Binotal; Penbritin; Principen; Viccillin

>  <SALTS>
Ampicillin sodium

$$$$
Penicillin V
 OpenBabel02121510022D

 25 27  0  0  1  0  0  0  0  0999 V2000
    7.9870    0.3800    0.0000 S   0  0  0  0  0  0  0  0  0  0  0  0
    5.7880   -1.2880    0.0000 O   0  0  0  0  0  0  0  0  0  0  0  0
    7.6900   -2.3530    0.0000 O   0  0  0  0  0  0  0  0  0  0  0  0
    9.0490   -1.9110    0.0000 O   0  0  0  0  0  0  0  0  0  0  0  0
    4.7760   -0.2950    0.0000 O   0  0  0  0  0  0  0  0  0  0  0  0
    3.6120    0.8740    0.0000 O   0  0  0  0  0  0  0  0  0  0  0  0
    7.2020   -0.7000    0.0000 N   0  0  0  0  0  0  0  0  0  0  0  0
    5.7880    0.7130    0.0000 N   0  0  0  0  0  0  0  0  0  0  0  0
    7.2020    0.1250    0.0000 C   0  0  1  0  0  0  0  0  0  0  0  0
    8.4720   -0.2880    0.0000 C   0  0  0  0  0  0  0  0  0  0  0  0
    7.9870   -0.9550    0.0000 C   0  0  2  0  0  0  0  0  0  0  0  0
    6.3710    0.1280    0.0000 C   0  0  1  0  0  0  0  0  0  0  0  0
    6.3710   -0.7040    0.0000 C   0  0  0  0  0  0  0  0  0  0  0  0
    9.1400   -0.7720    0.0000 C   0  0  0  0  0  0  0  0  0  0  0  0
    9.1400    0.1970    0.0000 C   0  0  0  0  0  0  0  0  0  0  0  0
    8.2420   -1.7400    0.0000 C   0  0  0  0  0  0  0  0  0  0  0  0
    4.9910    0.5010    0.0000 C   0  0  0  0  0  0  0  0  0  0  0  0
    4.4090    1.0860    0.0000 C   0  0  0  0  0  0  0  0  0  0  0  0
    3.0300    1.4580    0.0000 C   0  0  0  0  0  0  0  0  0  0  0  0
    2.2320    1.2460    0.0000 C   0  0  0  0  0  0  0  0  0  0  0  0
    3.2450    2.2550    0.0000 C   0  0  0  0  0  0  0  0  0  0  0  0
    1.6500    1.8310    0.0000 C   0  0  0  0  0  0  0  0  0  0  0  0
    2.6620    2.8390    0.0000 C   0  0  0  0  0  0  0  0  0  0  0  0
    1.8650    2.6270    0.0000 C   0  0  0  0  0  0  0  0  0  0  0  0
    7.1010    0.7770    0.0000 H   0  0  0  0  0  0  0  0  0  0  0  0
  1  9  1  0  0  0  0
  1 10  1  0  0  0  0
  2 13  2  0  0  0  0
  3 16  1  0  0  0  0
  4 16  2  0  0  0  0
  5 17  2  0  0  0  0
  6 18  1  0  0  0  0
  6 19  1  0  0  0  0
  7  9  1  0  0  0  0
  7 11  1  0  0  0  0
  7 13  1  0  0  0  0
  8 17  1  0  0  0  0
  9 12  1  0  0  0  0
  9 25  1  6  0  0  0
 10 11  1  0  0  0  0
 10 14  1  0  0  0  0
 10 15  1  0  0  0  0
 11 16  1  6  0  0  0
 12  8  1  1  0  0  0
 12 13  1  0  0  0  0
 17 18  1  0  0  0  0
 19 20  2  0  0  0  0
 19 21  1  0  0  0  0
 20 22  1  0  0  0  0
 21 23  2  0  0  0  0
 22 24  2  0  0  0  0
 23 24  1  0  0  0  0
M  END
>  <DATABASE_ID>
DB00417

>  <DATABASE_NAME>
drugbank

>  <SMILES>
S1[C@H]2N([C@@H](C(O)=O)C1(C)C)C(=O)[C@H]2NC(=O)COc1ccccc1

>  <INCHI_IDENTIFIER>
InChI=1S/C16H18N2O5S/c1-16(2)12(15(21)22)18-13(20)11(14(18)24-16)17-10(19)8-23-9-6-4-3-5-7-9/h3-7,11-12,14H,8H2,1-2H3,(H,17,19)(H,21,22)/t11-,12+,14-/m1/s1

>  <INCHI_KEY>
InChIKey=BPLBGHOLXOTWMN-MBNYWOFBSA-N

>  <JCHEM_ACCEPTOR_COUNT>
5

>  <JCHEM_AVERAGE_POLARIZABILITY>
34.370438

>  <JCHEM_BIOAVAILABILITY>
1

>  <JCHEM_DONOR_COUNT>
2

>  <JCHEM_EXACT_MASS>
350.09363

>  <JCHEM_FORMAL_CHARGE>
0

>  <JCHEM_FORMULA>
C16H18N2O5S

>  <JCHEM_GHOSE_FILTER>
1

>  <JCHEM_IUPAC>
(2S,5R,6R)-3,3-dimethyl-7-oxo-6-(2-phenoxyacetamido)-4-thia-1-azabicyclo[3.2.0]heptane-2-carboxylic acid

>  <ALOGPS_LOGP>
1.78

>  <JCHEM_LOGP>
0.76324171

>  <ALOGPS_LOGS>
-2.8900001

>  <JCHEM_MASS>
350.39001

>  <JCHEM_MDDR_LIKE_RULE>
0

>  <JCHEM_NUMBER_OF_RINGS>
3

>  <JCHEM_PHYSIOLOGICAL_CHARGE>
-1

>  <JCHEM_PKA>
11.741507

>  <JCHEM_PKA_STRONGEST_ACIDIC>
3.3902681

>  <JCHEM_PKA_STRONGEST_BASIC>
-4.8690233

>  <JCHEM_POLAR_SURFACE_AREA>
95.940002

>  <JCHEM_REFRACTIVITY>
85.767998

>  <JCHEM_ROTATABLE_BOND_COUNT>
5

>  <JCHEM_RULE_OF_FIVE>
1

>  <ALOGPS_SOLUBILITY>
4.54e-01 g/l

>  <JCHEM_TRADITIONAL_IUPAC>
penicillin V

>  <JCHEM_VEBER_RULE>
0

>  <DRUGBANK_ID>
DB00417

>  <DRUG_GROUPS>
approved

>  <GENERIC_NAME>
Penicillin V

>  <SYNONYMS>
6-phenoxyacetamidopenicillanic acid; Fenoximetilpenicilina; Oracillin; Penicillin Phenoxymethyl; Phenoxomethylpenicillin; Phenoxymethyl Penicillin; Phenoxymethylenepenicillinic acid; Phenoxymethylpenicillin

>  <BRANDS>
Apo-Pen-Vk; Beepen-Vk; Betapen-Vk; Crystapen V; Distaquaine V; Fenospen; Fenoxypen; Ledercillin Vk; Oratren; Ospen; Pen-Oral; Pen-V; Pen-Vee; Pen-Vee K; Penicillin Vk; Pfizerpen Vk; Phenocillin; Robicillin Vk; Rocilin; Uticillin Vk; V-Cillin; Veetids

>  <SALTS>
Phenoxomethylpenicillin potassium

$$$$
Miglustat
 OpenBabel02121510022D

 15 15  0  0  1  0  0  0  0  0999 V2000
    4.9510   -1.5220    0.0000 O   0  0  0  0  0  0  0  0  0  0  0  0
    3.5220   -2.3470    0.0000 O   0  0  0  0  0  0  0  0  0  0  0  0
    2.0930   -1.5220    0.0000 O   0  0  0  0  0  0  0  0  0  0  0  0
    4.9510    0.9530    0.0000 O   0  0  0  0  0  0  0  0  0  0  0  0
    3.5220    0.1280    0.0000 N   0  0  0  0  0  0  0  0  0  0  0  0
    4.2360   -0.2850    0.0000 C   0  0  1  0  0  0  0  0  0  0  0  0
    4.2360   -1.1100    0.0000 C   0  0  2  0  0  0  0  0  0  0  0  0
    3.5220   -1.5220    0.0000 C   0  0  1  0  0  0  0  0  0  0  0  0
    2.8080   -1.1100    0.0000 C   0  0  2  0  0  0  0  0  0  0  0  0
    2.8080   -0.2850    0.0000 C   0  0  0  0  0  0  0  0  0  0  0  0
    3.5220    0.9530    0.0000 C   0  0  0  0  0  0  0  0  0  0  0  0
    4.9510    0.1280    0.0000 C   0  0  0  0  0  0  0  0  0  0  0  0
    2.8080    1.3650    0.0000 C   0  0  0  0  0  0  0  0  0  0  0  0
    2.8080    2.1900    0.0000 C   0  0  0  0  0  0  0  0  0  0  0  0
    2.0930    2.6030    0.0000 C   0  0  0  0  0  0  0  0  0  0  0  0
  4 12  1  0  0  0  0
  5  6  1  0  0  0  0
  5 10  1  0  0  0  0
  5 11  1  0  0  0  0
  6  7  1  0  0  0  0
  6 12  1  6  0  0  0
  7  1  1  1  0  0  0
  7  8  1  0  0  0  0
  8  2  1  6  0  0  0
  8  9  1  0  0  0  0
  9  3  1  1  0  0  0
  9 10  1  0  0  0  0
 11 13  1  0  0  0  0
 13 14  1  0  0  0  0
 14 15  1  0  0  0  0
M  END
>  <DATABASE_ID>
DB00419

>  <DATABASE_NAME>
drugbank

>  <SMILES>
O[C@H]1[C@H](O)[C@@H](O)CN(CCCC)[C@@H]1CO

>  <INCHI_IDENTIFIER>
InChI=1S/C10H21NO4/c1-2-3-4-11-5-8(13)10(15)9(14)7(11)6-12/h7-10,12-15H,2-6H2,1H3/t7-,8+,9-,10-/m1/s1

>  <INCHI_KEY>
InChIKey=UQRORFVVSGFNRO-UTINFBMNSA-N

>  <JCHEM_ACCEPTOR_COUNT>
5

>  <JCHEM_AVERAGE_POLARIZABILITY>
23.98502

>  <JCHEM_BIOAVAILABILITY>
1

>  <JCHEM_DONOR_COUNT>
4

>  <JCHEM_EXACT_MASS>
219.14706

>  <JCHEM_FORMAL_CHARGE>
0

>  <JCHEM_FORMULA>
C10H21NO4

>  <JCHEM_GHOSE_FILTER>
0

>  <JCHEM_IUPAC>
(2R,3R,4R,5S)-1-butyl-2-(hydroxymethyl)piperidine-3,4,5-triol

>  <ALOGPS_LOGP>
-1.14

>  <JCHEM_LOGP>
-1.1787962

>  <ALOGPS_LOGS>
0.18000001

>  <JCHEM_MASS>
219.278

>  <JCHEM_MDDR_LIKE_RULE>
0

>  <JCHEM_NUMBER_OF_RINGS>
1

>  <JCHEM_PHYSIOLOGICAL_CHARGE>
1

>  <JCHEM_PKA>
14.032375

>  <JCHEM_PKA_STRONGEST_ACIDIC>
12.902159

>  <JCHEM_PKA_STRONGEST_BASIC>
8.4929981

>  <JCHEM_POLAR_SURFACE_AREA>
84.160004

>  <JCHEM_REFRACTIVITY>
55.742699

>  <JCHEM_ROTATABLE_BOND_COUNT>
4

>  <JCHEM_RULE_OF_FIVE>
1

>  <ALOGPS_SOLUBILITY>
3.31e+02 g/l

>  <JCHEM_TRADITIONAL_IUPAC>
miglustat

>  <JCHEM_VEBER_RULE>
0

>  <DRUGBANK_ID>
DB00419

>  <DRUG_GROUPS>
approved

>  <GENERIC_NAME>
Miglustat

>  <BRANDS>
Zavesca

>  <SALTS>
Miglustat Hydrochloride

$$$$
Spironolactone
 OpenBabel02121510022D

 33 37  0  0  1  0  0  0  0  0999 V2000
    3.0790   -0.3100    0.0000 S   0  0  0  0  0  0  0  0  0  0  0  0
    5.9020   -2.2620    0.0000 O   0  0  0  0  0  0  0  0  0  0  0  0
    7.0430   -3.1890    0.0000 O   0  0  0  0  0  0  0  0  0  0  0  0
    5.2980    3.5670    0.0000 O   0  0  0  0  0  0  0  0  0  0  0  0
    2.3500    0.9190    0.0000 O   0  0  0  0  0  0  0  0  0  0  0  0
    5.2540   -1.5450    0.0000 C   0  0  1  0  0  0  0  0  0  0  0  0
    4.5390   -1.1330    0.0000 C   0  0  2  0  0  0  0  0  0  0  0  0
    4.5390   -0.3080    0.0000 C   0  0  1  0  0  0  0  0  0  0  0  0
    5.0810   -2.3470    0.0000 C   0  0  2  0  0  0  0  0  0  0  0  0
    5.2540    0.1050    0.0000 C   0  0  1  0  0  0  0  0  0  0  0  0
    5.9680   -1.1330    0.0000 C   0  0  0  0  0  0  0  0  0  0  0  0
    3.9310   -1.6830    0.0000 C   0  0  0  0  0  0  0  0  0  0  0  0
    5.2670    0.9640    0.0000 C   0  0  2  0  0  0  0  0  0  0  0  0
    5.9680   -0.3080    0.0000 C   0  0  0  0  0  0  0  0  0  0  0  0
    4.2650   -2.4320    0.0000 C   0  0  0  0  0  0  0  0  0  0  0  0
    3.7880    0.1110    0.0000 C   0  0  1  0  0  0  0  0  0  0  0  0
    6.0660   -1.6880    0.0000 C   0  0  0  0  0  0  0  0  0  0  0  0
    4.9080   -3.1540    0.0000 C   0  0  0  0  0  0  0  0  0  0  0  0
    4.5260    1.4000    0.0000 C   0  0  0  0  0  0  0  0  0  0  0  0
    3.7820    0.9700    0.0000 C   0  0  0  0  0  0  0  0  0  0  0  0
    6.0520    1.3940    0.0000 C   0  0  0  0  0  0  0  0  0  0  0  0
    5.9780    0.5460    0.0000 C   0  0  0  0  0  0  0  0  0  0  0  0
    5.6220   -3.5670    0.0000 C   0  0  0  0  0  0  0  0  0  0  0  0
    6.2360   -3.0160    0.0000 C   0  0  0  0  0  0  0  0  0  0  0  0
    6.0660    2.2890    0.0000 C   0  0  0  0  0  0  0  0  0  0  0  0
    4.5190    2.2950    0.0000 C   0  0  0  0  0  0  0  0  0  0  0  0
    5.2940    2.7420    0.0000 C   0  0  0  0  0  0  0  0  0  0  0  0
    2.3600    0.0940    0.0000 C   0  0  0  0  0  0  0  0  0  0  0  0
    1.6500   -0.3270    0.0000 C   0  0  0  0  0  0  0  0  0  0  0  0
    3.9360   -0.8650    0.0000 H   0  0  0  0  0  0  0  0  0  0  0  0
    3.9700   -0.6420    0.0000 H   0  0  0  0  0  0  0  0  0  0  0  0
    5.8280    0.4300    0.0000 H   0  0  0  0  0  0  0  0  0  0  0  0
    3.2140    0.4350    0.0000 H   0  0  0  0  0  0  0  0  0  0  0  0
  1 28  1  0  0  0  0
  2 24  1  0  0  0  0
  3 24  2  0  0  0  0
  4 27  2  0  0  0  0
  5 28  2  0  0  0  0
  6  7  1  0  0  0  0
  6  9  1  0  0  0  0
  6 11  1  0  0  0  0
  6 17  1  1  0  0  0
  7  8  1  0  0  0  0
  7 12  1  0  0  0  0
  7 30  1  6  0  0  0
  8 10  1  0  0  0  0
  8 16  1  0  0  0  0
  8 31  1  1  0  0  0
  9  2  1  1  0  0  0
  9 15  1  0  0  0  0
  9 18  1  0  0  0  0
 10 13  1  0  0  0  0
 10 14  1  0  0  0  0
 10 32  1  6  0  0  0
 11 14  1  0  0  0  0
 12 15  1  0  0  0  0
 13 19  1  0  0  0  0
 13 21  1  0  0  0  0
 13 22  1  1  0  0  0
 16  1  1  0  0  0  0
 16 20  1  0  0  0  0
 16 33  1  1  0  0  0
 18 23  1  0  0  0  0
 19 20  1  0  0  0  0
 19 26  2  0  0  0  0
 21 25  1  0  0  0  0
 23 24  1  0  0  0  0
 25 27  1  0  0  0  0
 26 27  1  0  0  0  0
 28 29  1  0  0  0  0
M  END
>  <DATABASE_ID>
DB00421

>  <DATABASE_NAME>
drugbank

>  <SMILES>
S(C(=O)C)[C@H]1[C@H]2[C@@H]3CC[C@]4(OC(=O)CC4)[C@]3(CC[C@@H]2[C@@]2(C(=CC(=O)CC2)C1)C)C

>  <INCHI_IDENTIFIER>
InChI=1S/C24H32O4S/c1-14(25)29-19-13-15-12-16(26)4-8-22(15,2)17-5-9-23(3)18(21(17)19)6-10-24(23)11-7-20(27)28-24/h12,17-19,21H,4-11,13H2,1-3H3/t17-,18-,19+,21+,22-,23-,24+/m0/s1

>  <INCHI_KEY>
InChIKey=LXMSZDCAJNLERA-ZHYRCANASA-N

>  <JCHEM_ACCEPTOR_COUNT>
3

>  <JCHEM_AVERAGE_POLARIZABILITY>
46.034344

>  <JCHEM_BIOAVAILABILITY>
1

>  <JCHEM_DONOR_COUNT>
0

>  <JCHEM_EXACT_MASS>
416.20212

>  <JCHEM_FORMAL_CHARGE>
0

>  <JCHEM_FORMULA>
C24H32O4S

>  <JCHEM_GHOSE_FILTER>
1

>  <JCHEM_IUPAC>
(1'S,2R,2'R,9'R,10'R,11'S,15'S)-9'-(acetylsulfanyl)-2',15'-dimethylspiro[oxolane-2,14'-tetracyclo[8.7.0.0^{2,7}.0^{11,15}]heptadecan]-6'-ene-5,5'-dione

>  <ALOGPS_LOGP>
3.0999999

>  <JCHEM_LOGP>
3.6367545

>  <ALOGPS_LOGS>
-5.3200002

>  <JCHEM_MASS>
416.573

>  <JCHEM_MDDR_LIKE_RULE>
0

>  <JCHEM_NUMBER_OF_RINGS>
5

>  <JCHEM_PHYSIOLOGICAL_CHARGE>
0

>  <JCHEM_PKA_STRONGEST_ACIDIC>
18.006086

>  <JCHEM_PKA_STRONGEST_BASIC>
-4.881649

>  <JCHEM_POLAR_SURFACE_AREA>
60.439999

>  <JCHEM_REFRACTIVITY>
113.5043

>  <JCHEM_ROTATABLE_BOND_COUNT>
2

>  <JCHEM_RULE_OF_FIVE>
1

>  <ALOGPS_SOLUBILITY>
1.98e-03 g/l

>  <JCHEM_TRADITIONAL_IUPAC>
spironolactone

>  <JCHEM_VEBER_RULE>
0

>  <DRUGBANK_ID>
DB00421

>  <DRUG_GROUPS>
approved

>  <GENERIC_NAME>
Spironolactone

>  <SYNONYMS>
Espironolactona; Spironolactone; Spironolactonum; Spironolattone

>  <BRANDS>
Aldactone; Osyrol; Spiresis; Spiretic; Spiroctan; Uractone; Verospiron; Xenalon

$$$$
Methylphenidate
 OpenBabel02121510022D

 17 18  0  0  1  0  0  0  0  0999 V2000
    3.0790   -1.0310    0.0000 O   0  0  0  0  0  0  0  0  0  0  0  0
    4.5080   -1.0310    0.0000 O   0  0  0  0  0  0  0  0  0  0  0  0
    5.2220    0.2060    0.0000 N   0  0  0  0  0  0  0  0  0  0  0  0
    4.5080    0.6190    0.0000 C   0  0  3  0  0  0  0  0  0  0  0  0
    4.5080    1.4440    0.0000 C   0  0  0  0  0  0  0  0  0  0  0  0
    3.7940    0.2060    0.0000 C   0  0  3  0  0  0  0  0  0  0  0  0
    5.2220    1.8560    0.0000 C   0  0  0  0  0  0  0  0  0  0  0  0
    5.9370    1.4440    0.0000 C   0  0  0  0  0  0  0  0  0  0  0  0
    5.9370    0.6190    0.0000 C   0  0  0  0  0  0  0  0  0  0  0  0
    3.0790    0.6190    0.0000 C   0  0  0  0  0  0  0  0  0  0  0  0
    3.7940   -0.6190    0.0000 C   0  0  0  0  0  0  0  0  0  0  0  0
    2.3640    0.2060    0.0000 C   0  0  0  0  0  0  0  0  0  0  0  0
    3.0790    1.4440    0.0000 C   0  0  0  0  0  0  0  0  0  0  0  0
    1.6500    0.6190    0.0000 C   0  0  0  0  0  0  0  0  0  0  0  0
    2.3640    1.8560    0.0000 C   0  0  0  0  0  0  0  0  0  0  0  0
    1.6500    1.4440    0.0000 C   0  0  0  0  0  0  0  0  0  0  0  0
    3.0790   -1.8560    0.0000 C   0  0  0  0  0  0  0  0  0  0  0  0
  1 11  1  0  0  0  0
  1 17  1  0  0  0  0
  2 11  2  0  0  0  0
  3  4  1  0  0  0  0
  3  9  1  0  0  0  0
  4  5  1  0  0  0  0
  4  6  1  0  0  0  0
  5  7  1  0  0  0  0
  6 10  1  0  0  0  0
  6 11  1  0  0  0  0
  7  8  1  0  0  0  0
  8  9  1  0  0  0  0
 10 12  2  0  0  0  0
 10 13  1  0  0  0  0
 12 14  1  0  0  0  0
 13 15  2  0  0  0  0
 14 16  2  0  0  0  0
 15 16  1  0  0  0  0
M  END
>  <DATABASE_ID>
DB00422

>  <DATABASE_NAME>
drugbank

>  <SMILES>
O(C(=O)C(C1NCCCC1)c1ccccc1)C

>  <INCHI_IDENTIFIER>
InChI=1S/C14H19NO2/c1-17-14(16)13(11-7-3-2-4-8-11)12-9-5-6-10-15-12/h2-4,7-8,12-13,15H,5-6,9-10H2,1H3

>  <INCHI_KEY>
InChIKey=DUGOZIWVEXMGBE-UHFFFAOYSA-N

>  <JCHEM_ACCEPTOR_COUNT>
2

>  <JCHEM_AVERAGE_POLARIZABILITY>
26.210299

>  <JCHEM_BIOAVAILABILITY>
1

>  <JCHEM_DONOR_COUNT>
1

>  <JCHEM_EXACT_MASS>
233.14159

>  <JCHEM_FORMAL_CHARGE>
0

>  <JCHEM_FORMULA>
C14H19NO2

>  <JCHEM_GHOSE_FILTER>
1

>  <JCHEM_IUPAC>
methyl 2-phenyl-2-(piperidin-2-yl)acetate

>  <ALOGPS_LOGP>
1.47

>  <JCHEM_LOGP>
2.254935

>  <ALOGPS_LOGS>
-3.1099999

>  <JCHEM_MASS>
233.3062

>  <JCHEM_MDDR_LIKE_RULE>
0

>  <JCHEM_NUMBER_OF_RINGS>
2

>  <JCHEM_PHYSIOLOGICAL_CHARGE>
1

>  <JCHEM_PKA_STRONGEST_BASIC>
9.0888271

>  <JCHEM_POLAR_SURFACE_AREA>
38.330002

>  <JCHEM_REFRACTIVITY>
66.728203

>  <JCHEM_ROTATABLE_BOND_COUNT>
4

>  <JCHEM_RULE_OF_FIVE>
1

>  <ALOGPS_SOLUBILITY>
1.82e-01 g/l

>  <JCHEM_TRADITIONAL_IUPAC>
methylphenidate

>  <JCHEM_VEBER_RULE>
1

>  <DRUGBANK_ID>
DB00422

>  <DRUG_GROUPS>
approved; investigational

>  <GENERIC_NAME>
Methylphenidate

>  <SYNONYMS>
Methylphenidatum; Metilfenidato; MPH

>  <BRANDS>
Concerta; Daytrana; Equasym XL; Metadate; Methylin; Quillivant; Quillivant XR; Ritalin

>  <SALTS>
Methylphenidate Hydrochloride

$$$$
Methocarbamol
 OpenBabel02121510022D

 17 17  0  0  1  0  0  0  0  0999 V2000
    3.7940   -0.7470    0.0000 O   0  0  0  0  0  0  0  0  0  0  0  0
    3.7940    0.9030    0.0000 O   0  0  0  0  0  0  0  0  0  0  0  0
    5.2220    1.7280    0.0000 O   0  0  0  0  0  0  0  0  0  0  0  0
    2.3640   -1.5720    0.0000 O   0  0  0  0  0  0  0  0  0  0  0  0
    6.6520    1.7280    0.0000 O   0  0  0  0  0  0  0  0  0  0  0  0
    5.9370    2.9660    0.0000 N   0  0  0  0  0  0  0  0  0  0  0  0
    4.5080    0.4910    0.0000 C   0  0  3  0  0  0  0  0  0  0  0  0
    4.5080   -0.3340    0.0000 C   0  0  0  0  0  0  0  0  0  0  0  0
    5.2220    0.9030    0.0000 C   0  0  0  0  0  0  0  0  0  0  0  0
    3.7940   -1.5720    0.0000 C   0  0  0  0  0  0  0  0  0  0  0  0
    3.0790   -1.9840    0.0000 C   0  0  0  0  0  0  0  0  0  0  0  0
    4.5080   -1.9840    0.0000 C   0  0  0  0  0  0  0  0  0  0  0  0
    3.0790   -2.8090    0.0000 C   0  0  0  0  0  0  0  0  0  0  0  0
    4.5080   -2.8090    0.0000 C   0  0  0  0  0  0  0  0  0  0  0  0
    3.7940   -3.2220    0.0000 C   0  0  0  0  0  0  0  0  0  0  0  0
    5.9370    2.1410    0.0000 C   0  0  0  0  0  0  0  0  0  0  0  0
    1.6500   -1.9840    0.0000 C   0  0  0  0  0  0  0  0  0  0  0  0
  1  8  1  0  0  0  0
  1 10  1  0  0  0  0
  2  7  1  0  0  0  0
  3  9  1  0  0  0  0
  3 16  1  0  0  0  0
  4 11  1  0  0  0  0
  4 17  1  0  0  0  0
  5 16  2  0  0  0  0
  6 16  1  0  0  0  0
  7  8  1  0  0  0  0
  7  9  1  0  0  0  0
 10 11  2  0  0  0  0
 10 12  1  0  0  0  0
 11 13  1  0  0  0  0
 12 14  2  0  0  0  0
 13 15  2  0  0  0  0
 14 15  1  0  0  0  0
M  END
>  <DATABASE_ID>
DB00423

>  <DATABASE_NAME>
drugbank

>  <SMILES>
O(CC(O)COC(=O)N)c1ccccc1OC

>  <INCHI_IDENTIFIER>
InChI=1S/C11H15NO5/c1-15-9-4-2-3-5-10(9)16-6-8(13)7-17-11(12)14/h2-5,8,13H,6-7H2,1H3,(H2,12,14)

>  <INCHI_KEY>
InChIKey=GNXFOGHNGIVQEH-UHFFFAOYSA-N

>  <JCHEM_ACCEPTOR_COUNT>
4

>  <JCHEM_AVERAGE_POLARIZABILITY>
24.275227

>  <JCHEM_BIOAVAILABILITY>
1

>  <JCHEM_DONOR_COUNT>
2

>  <JCHEM_EXACT_MASS>
241.09502

>  <JCHEM_FORMAL_CHARGE>
0

>  <JCHEM_FORMULA>
C11H15NO5

>  <JCHEM_GHOSE_FILTER>
1

>  <JCHEM_IUPAC>
2-hydroxy-3-(2-methoxyphenoxy)propyl carbamate

>  <ALOGPS_LOGP>
0.63

>  <JCHEM_LOGP>
0.44504622

>  <ALOGPS_LOGS>
-1.76

>  <JCHEM_MASS>
241.24049

>  <JCHEM_MDDR_LIKE_RULE>
0

>  <JCHEM_NUMBER_OF_RINGS>
1

>  <JCHEM_PHYSIOLOGICAL_CHARGE>
0

>  <JCHEM_PKA>
14.813272

>  <JCHEM_PKA_STRONGEST_ACIDIC>
13.595918

>  <JCHEM_PKA_STRONGEST_BASIC>
-3.3962357

>  <JCHEM_POLAR_SURFACE_AREA>
91.010002

>  <JCHEM_REFRACTIVITY>
59.067402

>  <JCHEM_ROTATABLE_BOND_COUNT>
7

>  <JCHEM_RULE_OF_FIVE>
1

>  <ALOGPS_SOLUBILITY>
4.21e+00 g/l

>  <JCHEM_TRADITIONAL_IUPAC>
methocarbamol

>  <JCHEM_VEBER_RULE>
0

>  <DRUGBANK_ID>
DB00423

>  <DRUG_GROUPS>
approved

>  <GENERIC_NAME>
Methocarbamol

>  <SYNONYMS>
(RS)-2-hydroxy-3-(2-methoxyphenoxy)propyl carbamate; Méthocarbamol; Methocarbamolum; Metocarbamol; Metocarbamolo

>  <BRANDS>
Bolaxin; Carbaflex; Delaxin; DoloVisan; Fubaxin; Lumirelax; Metocarbamol; Mioflex; Miorel; Musxan; Ortoton; Rebamol; Robaxin; Robaxin-750; Robinax; Sinaxar; Taspan

$$$$
Hyoscyamine
 OpenBabel02121510022D

 21 23  0  0  1  0  0  0  0  0999 V2000
   -0.7140    0.4120    0.0000 O   0  0  0  0  0  0  0  0  0  0  0  0
    0.0000    0.0000    0.0000 C   0  0  0  0  0  0  0  0  0  0  0  0
    0.7140    0.4120    0.0000 C   0  0  2  0  0  0  0  0  0  0  0  0
    0.0000   -0.8250    0.0000 O   0  0  0  0  0  0  0  0  0  0  0  0
    0.7140    1.2380    0.0000 C   0  0  0  0  0  0  0  0  0  0  0  0
    1.4290    1.6500    0.0000 O   0  0  0  0  0  0  0  0  0  0  0  0
    1.4290    0.0000    0.0000 C   0  0  0  0  0  0  0  0  0  0  0  0
    1.4290   -0.8250    0.0000 C   0  0  0  0  0  0  0  0  0  0  0  0
    2.1430    0.4120    0.0000 C   0  0  0  0  0  0  0  0  0  0  0  0
    2.8580    0.0000    0.0000 C   0  0  0  0  0  0  0  0  0  0  0  0
    2.8580   -0.8250    0.0000 C   0  0  0  0  0  0  0  0  0  0  0  0
    2.1430   -1.2380    0.0000 C   0  0  0  0  0  0  0  0  0  0  0  0
   -2.0740   -1.3400    0.0000 C   0  0  2  0  0  0  0  0  0  0  0  0
   -1.4290   -0.8250    0.0000 C   0  0  0  0  0  0  0  0  0  0  0  0
   -2.8780   -1.1560    0.0000 C   0  0  0  0  0  0  0  0  0  0  0  0
   -3.2360   -0.4130    0.0000 C   0  0  0  0  0  0  0  0  0  0  0  0
   -2.8780    0.3310    0.0000 C   0  0  2  0  0  0  0  0  0  0  0  0
   -2.0740    0.5140    0.0000 C   0  0  0  0  0  0  0  0  0  0  0  0
   -1.4290    0.0000    0.0000 C   0  0  3  0  0  0  0  0  0  0  0  0
   -2.7350   -0.6290    0.0000 N   0  0  0  0  0  0  0  0  0  0  0  0
   -2.0210   -0.2170    0.0000 C   0  0  0  0  0  0  0  0  0  0  0  0
  1  2  1  0  0  0  0
  1 19  1  0  0  0  0
  2  4  2  0  0  0  0
  3  2  1  6  0  0  0
  3  5  1  0  0  0  0
  3  7  1  0  0  0  0
  5  6  1  0  0  0  0
  7  8  2  0  0  0  0
  7  9  1  0  0  0  0
  8 12  1  0  0  0  0
  9 10  2  0  0  0  0
 10 11  1  0  0  0  0
 11 12  2  0  0  0  0
 13 14  1  6  0  0  0
 13 15  1  0  0  0  0
 13 20  1  0  0  0  0
 14 19  1  0  0  0  0
 15 16  1  0  0  0  0
 17 16  1  6  0  0  0
 17 18  1  0  0  0  0
 17 20  1  0  0  0  0
 18 19  1  0  0  0  0
 20 21  1  0  0  0  0
M  END
>  <DATABASE_ID>
DB00424

>  <DATABASE_NAME>
drugbank

>  <SMILES>
O(C(=O)[C@H](CO)c1ccccc1)C1C[C@@H]2N([C@H](C1)CC2)C

>  <INCHI_IDENTIFIER>
InChI=1S/C17H23NO3/c1-18-13-7-8-14(18)10-15(9-13)21-17(20)16(11-19)12-5-3-2-4-6-12/h2-6,13-16,19H,7-11H2,1H3/t13-,14+,15+,16-/m1/s1

>  <INCHI_KEY>
InChIKey=RKUNBYITZUJHSG-FXUDXRNXSA-N

>  <JCHEM_ACCEPTOR_COUNT>
3

>  <JCHEM_AVERAGE_POLARIZABILITY>
31.741091

>  <JCHEM_BIOAVAILABILITY>
1

>  <JCHEM_DONOR_COUNT>
1

>  <JCHEM_EXACT_MASS>
289.16779

>  <JCHEM_FORMAL_CHARGE>
0

>  <JCHEM_FORMULA>
C17H23NO3

>  <JCHEM_GHOSE_FILTER>
1

>  <JCHEM_IUPAC>
(1R,3S,5S)-8-methyl-8-azabicyclo[3.2.1]octan-3-yl (2S)-3-hydroxy-2-phenylpropanoate

>  <ALOGPS_LOGP>
2.1900001

>  <JCHEM_LOGP>
1.571241

>  <ALOGPS_LOGS>
-2.0599999

>  <JCHEM_MASS>
289.36938

>  <JCHEM_MDDR_LIKE_RULE>
0

>  <JCHEM_NUMBER_OF_RINGS>
3

>  <JCHEM_PHYSIOLOGICAL_CHARGE>
1

>  <JCHEM_PKA_STRONGEST_ACIDIC>
15.145741

>  <JCHEM_PKA_STRONGEST_BASIC>
9.3855619

>  <JCHEM_POLAR_SURFACE_AREA>
49.77

>  <JCHEM_REFRACTIVITY>
80.816399

>  <JCHEM_ROTATABLE_BOND_COUNT>
5

>  <JCHEM_RULE_OF_FIVE>
1

>  <ALOGPS_SOLUBILITY>
2.52e+00 g/l

>  <JCHEM_TRADITIONAL_IUPAC>
hyoscyamine

>  <JCHEM_VEBER_RULE>
0

>  <DRUGBANK_ID>
DB00424

>  <DRUG_GROUPS>
approved

>  <GENERIC_NAME>
Hyoscyamine

>  <SYNONYMS>
(−)-atropine; (−)-hyoscyamine; (S)-(−)-hyoscyamine; (S)-atropine; Daturin; Daturine; Duboisine; Hyoscyamin; Hyoscyamine; Hyoscyaminum; L-Hyoscyamine; L-Tropine Tropate; Tropine-L-tropate

>  <BRANDS>
Acupaz; Anapaz; Anaspaz; Atropen; Boots Travel Calm; Buwecon; Cystospaz; Cytospaz; Donnamar; Egazil; Levbid; Levsin; Levsinex; NuLev; Symax

>  <SALTS>
Hyoscyamine hydrobromide; Hyoscyamine sulfate

$$$$
Zolpidem
 OpenBabel02121510022D

 23 25  0  0  0  0  0  0  0  0999 V2000
    3.4720    0.5740    0.0000 O   0  0  0  0  0  0  0  0  0  0  0  0
    3.7940   -0.9050    0.0000 N   0  0  0  0  0  0  0  0  0  0  0  0
    4.5740   -1.9820    0.0000 N   0  0  0  0  0  0  0  0  0  0  0  0
    4.5360    1.5290    0.0000 N   0  0  0  0  0  0  0  0  0  0  0  0
    4.5740   -0.6540    0.0000 C   0  0  0  0  0  0  0  0  0  0  0  0
    5.0560   -1.3180    0.0000 C   0  0  0  0  0  0  0  0  0  0  0  0
    3.7940   -1.7300    0.0000 C   0  0  0  0  0  0  0  0  0  0  0  0
    4.8300    0.1300    0.0000 C   0  0  0  0  0  0  0  0  0  0  0  0
    5.8810   -1.3180    0.0000 C   0  0  0  0  0  0  0  0  0  0  0  0
    3.0790   -0.4930    0.0000 C   0  0  0  0  0  0  0  0  0  0  0  0
    2.3640   -0.9050    0.0000 C   0  0  0  0  0  0  0  0  0  0  0  0
    3.0790   -2.1430    0.0000 C   0  0  0  0  0  0  0  0  0  0  0  0
    4.2800    0.7440    0.0000 C   0  0  0  0  0  0  0  0  0  0  0  0
    2.3640   -1.7300    0.0000 C   0  0  0  0  0  0  0  0  0  0  0  0
    6.2930   -2.0320    0.0000 C   0  0  0  0  0  0  0  0  0  0  0  0
    6.2930   -0.6030    0.0000 C   0  0  0  0  0  0  0  0  0  0  0  0
    1.6500   -0.4930    0.0000 C   0  0  0  0  0  0  0  0  0  0  0  0
    7.5310   -1.3180    0.0000 C   0  0  0  0  0  0  0  0  0  0  0  0
    7.1180   -2.0320    0.0000 C   0  0  0  0  0  0  0  0  0  0  0  0
    7.1180   -0.6030    0.0000 C   0  0  0  0  0  0  0  0  0  0  0  0
    3.9850    2.1430    0.0000 C   0  0  0  0  0  0  0  0  0  0  0  0
    5.3430    1.6990    0.0000 C   0  0  0  0  0  0  0  0  0  0  0  0
    8.3560   -1.3180    0.0000 C   0  0  0  0  0  0  0  0  0  0  0  0
  1 13  2  0  0  0  0
  2  5  1  0  0  0  0
  2  7  1  0  0  0  0
  2 10  1  0  0  0  0
  3  6  1  0  0  0  0
  3  7  2  0  0  0  0
  4 13  1  0  0  0  0
  4 21  1  0  0  0  0
  4 22  1  0  0  0  0
  5  6  2  0  0  0  0
  5  8  1  0  0  0  0
  6  9  1  0  0  0  0
  7 12  1  0  0  0  0
  8 13  1  0  0  0  0
  9 15  2  0  0  0  0
  9 16  1  0  0  0  0
 10 11  2  0  0  0  0
 11 14  1  0  0  0  0
 11 17  1  0  0  0  0
 12 14  2  0  0  0  0
 15 19  1  0  0  0  0
 16 20  2  0  0  0  0
 18 19  2  0  0  0  0
 18 20  1  0  0  0  0
 18 23  1  0  0  0  0
M  END
>  <DATABASE_ID>
DB00425

>  <DATABASE_NAME>
drugbank

>  <SMILES>
O=C(N(C)C)Cc1n2C=C(C=Cc2nc1-c1ccc(cc1)C)C

>  <INCHI_IDENTIFIER>
InChI=1S/C19H21N3O/c1-13-5-8-15(9-6-13)19-16(11-18(23)21(3)4)22-12-14(2)7-10-17(22)20-19/h5-10,12H,11H2,1-4H3

>  <INCHI_KEY>
InChIKey=ZAFYATHCZYHLPB-UHFFFAOYSA-N

>  <JCHEM_ACCEPTOR_COUNT>
2

>  <JCHEM_AVERAGE_POLARIZABILITY>
35.063225

>  <JCHEM_BIOAVAILABILITY>
1

>  <JCHEM_DONOR_COUNT>
0

>  <JCHEM_EXACT_MASS>
307.16846

>  <JCHEM_FORMAL_CHARGE>
0

>  <JCHEM_FORMULA>
C19H21N3O

>  <JCHEM_GHOSE_FILTER>
1

>  <JCHEM_IUPAC>
N,N-dimethyl-2-[6-methyl-2-(4-methylphenyl)imidazo[1,2-a]pyridin-3-yl]acetamide

>  <ALOGPS_LOGP>
3.1500001

>  <JCHEM_LOGP>
3.0176268

>  <ALOGPS_LOGS>
-3.99

>  <JCHEM_MASS>
307.3895

>  <JCHEM_MDDR_LIKE_RULE>
0

>  <JCHEM_NUMBER_OF_RINGS>
3

>  <JCHEM_PHYSIOLOGICAL_CHARGE>
0

>  <JCHEM_PKA_STRONGEST_BASIC>
5.6535878

>  <JCHEM_POLAR_SURFACE_AREA>
37.610001

>  <JCHEM_REFRACTIVITY>
93.583702

>  <JCHEM_ROTATABLE_BOND_COUNT>
3

>  <JCHEM_RULE_OF_FIVE>
1

>  <ALOGPS_SOLUBILITY>
3.13e-02 g/l

>  <JCHEM_TRADITIONAL_IUPAC>
zolpidem

>  <JCHEM_VEBER_RULE>
1

>  <DRUGBANK_ID>
DB00425

>  <DRUG_GROUPS>
approved

>  <GENERIC_NAME>
Zolpidem

>  <SYNONYMS>
Zolpidem; Zolpidemum

>  <BRANDS>
Adormix; Ambien; Ambien CR; Bikalm; Dormizol; Edluar; Hypnogen; Intermezzo; Ivadal; Ivedal; Nasen; Nimadorm; Nottem; Stilnoct; Stilnox; Stilnox CR; Zolpimist; Zolsana; Zoltis

>  <SALTS>
Zolpidem tartrate

$$$$
Famciclovir
 OpenBabel02121510022D

 23 24  0  0  0  0  0  0  0  0999 V2000
    6.0420    1.6140    0.0000 O   0  0  0  0  0  0  0  0  0  0  0  0
    7.4000    1.1700    0.0000 O   0  0  0  0  0  0  0  0  0  0  0  0
    4.6840    2.0580    0.0000 O   0  0  0  0  0  0  0  0  0  0  0  0
    8.7590    0.7260    0.0000 O   0  0  0  0  0  0  0  0  0  0  0  0
    5.0170   -1.5230    0.0000 N   0  0  0  0  0  0  0  0  0  0  0  0
    5.0170   -2.8510    0.0000 N   0  0  0  0  0  0  0  0  0  0  0  0
    3.5220   -1.3620    0.0000 N   0  0  0  0  0  0  0  0  0  0  0  0
    2.8080   -2.5990    0.0000 N   0  0  0  0  0  0  0  0  0  0  0  0
    2.0930   -1.3620    0.0000 N   0  0  0  0  0  0  0  0  0  0  0  0
    6.3370    0.2160    0.0000 C   0  0  0  0  0  0  0  0  0  0  0  0
    6.0810   -0.5690    0.0000 C   0  0  0  0  0  0  0  0  0  0  0  0
    5.2730   -0.7390    0.0000 C   0  0  0  0  0  0  0  0  0  0  0  0
    5.7860    0.8300    0.0000 C   0  0  0  0  0  0  0  0  0  0  0  0
    7.1440    0.3860    0.0000 C   0  0  0  0  0  0  0  0  0  0  0  0
    4.2360   -1.7740    0.0000 C   0  0  0  0  0  0  0  0  0  0  0  0
    5.4980   -2.1870    0.0000 C   0  0  0  0  0  0  0  0  0  0  0  0
    4.2360   -2.5990    0.0000 C   0  0  0  0  0  0  0  0  0  0  0  0
    3.5220   -3.0120    0.0000 C   0  0  0  0  0  0  0  0  0  0  0  0
    5.4910    2.2280    0.0000 C   0  0  0  0  0  0  0  0  0  0  0  0
    8.2080    1.3400    0.0000 C   0  0  0  0  0  0  0  0  0  0  0  0
    2.8080   -1.7740    0.0000 C   0  0  0  0  0  0  0  0  0  0  0  0
    5.7480    3.0120    0.0000 C   0  0  0  0  0  0  0  0  0  0  0  0
    8.4640    2.1240    0.0000 C   0  0  0  0  0  0  0  0  0  0  0  0
  1 13  1  0  0  0  0
  1 19  1  0  0  0  0
  2 14  1  0  0  0  0
  2 20  1  0  0  0  0
  3 19  2  0  0  0  0
  4 20  2  0  0  0  0
  5 12  1  0  0  0  0
  5 15  1  0  0  0  0
  5 16  1  0  0  0  0
  6 16  2  0  0  0  0
  6 17  1  0  0  0  0
  7 15  1  0  0  0  0
  7 21  2  0  0  0  0
  8 18  2  0  0  0  0
  8 21  1  0  0  0  0
  9 21  1  0  0  0  0
 10 11  1  0  0  0  0
 10 13  1  0  0  0  0
 10 14  1  0  0  0  0
 11 12  1  0  0  0  0
 15 17  2  0  0  0  0
 17 18  1  0  0  0  0
 19 22  1  0  0  0  0
 20 23  1  0  0  0  0
M  END
>  <DATABASE_ID>
DB00426

>  <DATABASE_NAME>
drugbank

>  <SMILES>
O(C(=O)C)CC(CCn1c2nc(ncc2nc1)N)COC(=O)C

>  <INCHI_IDENTIFIER>
InChI=1S/C14H19N5O4/c1-9(20)22-6-11(7-23-10(2)21)3-4-19-8-17-12-5-16-14(15)18-13(12)19/h5,8,11H,3-4,6-7H2,1-2H3,(H2,15,16,18)

>  <INCHI_KEY>
InChIKey=GGXKWVWZWMLJEH-UHFFFAOYSA-N

>  <JCHEM_ACCEPTOR_COUNT>
6

>  <JCHEM_AVERAGE_POLARIZABILITY>
32.825478

>  <JCHEM_BIOAVAILABILITY>
1

>  <JCHEM_DONOR_COUNT>
1

>  <JCHEM_EXACT_MASS>
321.14371

>  <JCHEM_FORMAL_CHARGE>
0

>  <JCHEM_FORMULA>
C14H19N5O4

>  <JCHEM_GHOSE_FILTER>
0

>  <JCHEM_IUPAC>
2-[(acetyloxy)methyl]-4-(2-amino-9H-purin-9-yl)butyl acetate

>  <ALOGPS_LOGP>
0.13

>  <JCHEM_LOGP>
-0.48368603

>  <ALOGPS_LOGS>
-2.3900001

>  <JCHEM_MASS>
321.33179

>  <JCHEM_MDDR_LIKE_RULE>
0

>  <JCHEM_NUMBER_OF_RINGS>
2

>  <JCHEM_PHYSIOLOGICAL_CHARGE>
0

>  <JCHEM_PKA_STRONGEST_ACIDIC>
16.700941

>  <JCHEM_PKA_STRONGEST_BASIC>
5.0484757

>  <JCHEM_POLAR_SURFACE_AREA>
122.22

>  <JCHEM_REFRACTIVITY>
81.535301

>  <JCHEM_ROTATABLE_BOND_COUNT>
9

>  <JCHEM_RULE_OF_FIVE>
1

>  <ALOGPS_SOLUBILITY>
1.32e+00 g/l

>  <JCHEM_TRADITIONAL_IUPAC>
famciclovir

>  <JCHEM_VEBER_RULE>
0

>  <DRUGBANK_ID>
DB00426

>  <DRUG_GROUPS>
approved

>  <GENERIC_NAME>
Famciclovir

>  <SYNONYMS>
Famciclovir; Famciclovirum; FCV

>  <BRANDS>
Ezovir; Fambir; Famcino; Famcir; Famvir; Famvir Once; Fanclomax; Fanle; Microvir; Oravir; Pentavir; Penvir; Pixin; Virovir; Wan Qi; Weike

$$$$
Prochlorperazine
 OpenBabel02121510022D

 25 28  0  0  1  0  0  0  0  0999 V2000
    7.8100   -0.9570    0.0000 Cl  0  0  0  0  0  0  0  0  0  0  0  0
    5.0140   -2.5610    0.0000 S   0  0  0  0  0  0  0  0  0  0  0  0
    3.6420    1.4000    0.0000 N   0  0  0  0  0  0  0  0  0  0  0  0
    2.2700    2.1920    0.0000 N   0  0  0  0  0  0  0  0  0  0  0  0
    5.0140   -0.9760    0.0000 N   0  0  0  0  0  0  0  0  0  0  0  0
    2.9560    1.0040    0.0000 C   0  0  0  0  0  0  0  0  0  0  0  0
    3.6420    2.1920    0.0000 C   0  0  0  0  0  0  0  0  0  0  0  0
    4.3280    1.0040    0.0000 C   0  0  0  0  0  0  0  0  0  0  0  0
    2.2700    1.4000    0.0000 C   0  0  0  0  0  0  0  0  0  0  0  0
    2.9560    2.5880    0.0000 C   0  0  0  0  0  0  0  0  0  0  0  0
    4.3280    0.2120    0.0000 C   0  0  0  0  0  0  0  0  0  0  0  0
    5.0140   -0.1840    0.0000 C   0  0  0  0  0  0  0  0  0  0  0  0
    1.5840    2.5880    0.0000 C   0  0  0  0  0  0  0  0  0  0  0  0
    5.7000   -1.3720    0.0000 C   0  0  0  0  0  0  0  0  0  0  0  0
    4.3280   -1.3720    0.0000 C   0  0  0  0  0  0  0  0  0  0  0  0
    5.7000   -2.1640    0.0000 C   0  0  0  0  0  0  0  0  0  0  0  0
    4.3280   -2.1640    0.0000 C   0  0  0  0  0  0  0  0  0  0  0  0
    6.4080   -0.9490    0.0000 C   0  0  0  0  0  0  0  0  0  0  0  0
    3.6200   -0.9490    0.0000 C   0  0  0  0  0  0  0  0  0  0  0  0
    6.4080   -2.5880    0.0000 C   0  0  0  0  0  0  0  0  0  0  0  0
    3.6200   -2.5880    0.0000 C   0  0  0  0  0  0  0  0  0  0  0  0
    7.1260   -1.3560    0.0000 C   0  0  0  0  0  0  0  0  0  0  0  0
    2.9020   -1.3560    0.0000 C   0  0  0  0  0  0  0  0  0  0  0  0
    7.1260   -2.1810    0.0000 C   0  0  0  0  0  0  0  0  0  0  0  0
    2.9020   -2.1810    0.0000 C   0  0  0  0  0  0  0  0  0  0  0  0
  1 22  1  0  0  0  0
  2 16  1  0  0  0  0
  2 17  1  0  0  0  0
  3  6  1  0  0  0  0
  3  7  1  0  0  0  0
  3  8  1  0  0  0  0
  4  9  1  0  0  0  0
  4 10  1  0  0  0  0
  4 13  1  0  0  0  0
  5 12  1  0  0  0  0
  5 14  1  0  0  0  0
  5 15  1  0  0  0  0
  6  9  1  0  0  0  0
  7 10  1  0  0  0  0
  8 11  1  0  0  0  0
 11 12  1  0  0  0  0
 14 16  2  0  0  0  0
 14 18  1  0  0  0  0
 15 17  2  0  0  0  0
 15 19  1  0  0  0  0
 16 20  1  0  0  0  0
 17 21  1  0  0  0  0
 18 22  2  0  0  0  0
 19 23  2  0  0  0  0
 20 24  2  0  0  0  0
 21 25  2  0  0  0  0
 22 24  1  0  0  0  0
 23 25  1  0  0  0  0
M  END
>  <DATABASE_ID>
DB00433

>  <DATABASE_NAME>
drugbank

>  <SMILES>
Clc1cc2N(c3c(Sc2cc1)cccc3)CCCN1CCN(CC1)C

>  <INCHI_IDENTIFIER>
InChI=1S/C20H24ClN3S/c1-22-11-13-23(14-12-22)9-4-10-24-17-5-2-3-6-19(17)25-20-8-7-16(21)15-18(20)24/h2-3,5-8,15H,4,9-14H2,1H3

>  <INCHI_KEY>
InChIKey=WIKYUJGCLQQFNW-UHFFFAOYSA-N

>  <JCHEM_ACCEPTOR_COUNT>
3

>  <JCHEM_AVERAGE_POLARIZABILITY>
41.765602

>  <JCHEM_BIOAVAILABILITY>
1

>  <JCHEM_DONOR_COUNT>
0

>  <JCHEM_EXACT_MASS>
373.13794

>  <JCHEM_FORMAL_CHARGE>
0

>  <JCHEM_FORMULA>
C20H24ClN3S

>  <JCHEM_GHOSE_FILTER>
1

>  <JCHEM_IUPAC>
2-chloro-10-[3-(4-methylpiperazin-1-yl)propyl]-10H-phenothiazine

>  <ALOGPS_LOGP>
4.6700001

>  <JCHEM_LOGP>
4.3821197

>  <ALOGPS_LOGS>
-4.5300002

>  <JCHEM_MASS>
373.94299

>  <JCHEM_MDDR_LIKE_RULE>
0

>  <JCHEM_NUMBER_OF_RINGS>
4

>  <JCHEM_PHYSIOLOGICAL_CHARGE>
1

>  <JCHEM_PKA_STRONGEST_BASIC>
8.3886423

>  <JCHEM_POLAR_SURFACE_AREA>
9.7200003

>  <JCHEM_REFRACTIVITY>
109.8064

>  <JCHEM_ROTATABLE_BOND_COUNT>
4

>  <JCHEM_RULE_OF_FIVE>
1

>  <ALOGPS_SOLUBILITY>
1.10e-02 g/l

>  <JCHEM_TRADITIONAL_IUPAC>
prochlorperazine

>  <JCHEM_VEBER_RULE>
1

>  <DRUGBANK_ID>
DB00433

>  <DRUG_GROUPS>
approved

>  <GENERIC_NAME>
Prochlorperazine

>  <SYNONYMS>
Capazine; Chlormeprazine; Chloropernazine; Emetiral; Prochlorperazin; Prochlorpérazine; Prochlorperazinum; Prochlorpermazine; Prochlorpromazine; Procloperazine; Proclorperazina

>  <BRANDS>
Buccastem; Compazine; Compro; Emetiral; Stemetil; Stemzine; Volimin

>  <SALTS>
Prochlorperazine edisylate; Prochlorperazine maleate

$$$$
Cyproheptadine
 OpenBabel02121510022D

 22 25  0  0  0  0  0  0  0  0999 V2000
    4.0280   -1.7290    0.0000 N   0  0  0  0  0  0  0  0  0  0  0  0
    4.0280   -0.0790    0.0000 C   0  0  0  0  0  0  0  0  0  0  0  0
    4.7430   -0.4910    0.0000 C   0  0  0  0  0  0  0  0  0  0  0  0
    3.3140   -0.4910    0.0000 C   0  0  0  0  0  0  0  0  0  0  0  0
    4.7430   -1.3160    0.0000 C   0  0  0  0  0  0  0  0  0  0  0  0
    3.3140   -1.3160    0.0000 C   0  0  0  0  0  0  0  0  0  0  0  0
    4.0280    0.7460    0.0000 C   0  0  0  0  0  0  0  0  0  0  0  0
    4.7720    1.1040    0.0000 C   0  0  0  0  0  0  0  0  0  0  0  0
    3.2850    1.1040    0.0000 C   0  0  0  0  0  0  0  0  0  0  0  0
    4.0280   -2.5540    0.0000 C   0  0  0  0  0  0  0  0  0  0  0  0
    4.9550    1.9090    0.0000 C   0  0  0  0  0  0  0  0  0  0  0  0
    3.1020    1.9090    0.0000 C   0  0  0  0  0  0  0  0  0  0  0  0
    5.3930    0.5100    0.0000 C   0  0  0  0  0  0  0  0  0  0  0  0
    2.6640    0.5100    0.0000 C   0  0  0  0  0  0  0  0  0  0  0  0
    4.4410    2.5540    0.0000 C   0  0  0  0  0  0  0  0  0  0  0  0
    3.6160    2.5540    0.0000 C   0  0  0  0  0  0  0  0  0  0  0  0
    5.7720    2.1740    0.0000 C   0  0  0  0  0  0  0  0  0  0  0  0
    2.2840    2.1740    0.0000 C   0  0  0  0  0  0  0  0  0  0  0  0
    6.2160    0.7570    0.0000 C   0  0  0  0  0  0  0  0  0  0  0  0
    1.8410    0.7570    0.0000 C   0  0  0  0  0  0  0  0  0  0  0  0
    6.4070    1.5950    0.0000 C   0  0  0  0  0  0  0  0  0  0  0  0
    1.6500    1.5950    0.0000 C   0  0  0  0  0  0  0  0  0  0  0  0
  1  5  1  0  0  0  0
  1  6  1  0  0  0  0
  1 10  1  0  0  0  0
  2  3  1  0  0  0  0
  2  4  1  0  0  0  0
  2  7  2  0  0  0  0
  3  5  1  0  0  0  0
  4  6  1  0  0  0  0
  7  8  1  0  0  0  0
  7  9  1  0  0  0  0
  8 11  1  0  0  0  0
  8 13  2  0  0  0  0
  9 12  1  0  0  0  0
  9 14  2  0  0  0  0
 11 15  1  0  0  0  0
 11 17  2  0  0  0  0
 12 16  1  0  0  0  0
 12 18  2  0  0  0  0
 13 19  1  0  0  0  0
 14 20  1  0  0  0  0
 15 16  2  0  0  0  0
 17 21  1  0  0  0  0
 18 22  1  0  0  0  0
 19 21  2  0  0  0  0
 20 22  2  0  0  0  0
M  END
>  <DATABASE_ID>
DB00434

>  <DATABASE_NAME>
drugbank

>  <SMILES>
N1(CCC(CC1)=C1c2c(C=Cc3c1cccc3)cccc2)C

>  <INCHI_IDENTIFIER>
InChI=1S/C21H21N/c1-22-14-12-18(13-15-22)21-19-8-4-2-6-16(19)10-11-17-7-3-5-9-20(17)21/h2-11H,12-15H2,1H3

>  <INCHI_KEY>
InChIKey=JJCFRYNCJDLXIK-UHFFFAOYSA-N

>  <JCHEM_ACCEPTOR_COUNT>
1

>  <JCHEM_AVERAGE_POLARIZABILITY>
34.16864

>  <JCHEM_BIOAVAILABILITY>
1

>  <JCHEM_DONOR_COUNT>
0

>  <JCHEM_EXACT_MASS>
287.16739

>  <JCHEM_FORMAL_CHARGE>
0

>  <JCHEM_FORMULA>
C21H21N

>  <JCHEM_GHOSE_FILTER>
1

>  <JCHEM_IUPAC>
1-methyl-4-{tricyclo[9.4.0.0^{3,8}]pentadeca-1(11),3(8),4,6,9,12,14-heptaen-2-ylidene}piperidine

>  <ALOGPS_LOGP>
5.02

>  <JCHEM_LOGP>
4.3828416

>  <ALOGPS_LOGS>
-4.3299999

>  <JCHEM_MASS>
287.3981

>  <JCHEM_MDDR_LIKE_RULE>
0

>  <JCHEM_NUMBER_OF_RINGS>
4

>  <JCHEM_PHYSIOLOGICAL_CHARGE>
1

>  <JCHEM_PKA_STRONGEST_BASIC>
8.0493546

>  <JCHEM_POLAR_SURFACE_AREA>
3.24

>  <JCHEM_REFRACTIVITY>
105.1742

>  <JCHEM_ROTATABLE_BOND_COUNT>
0

>  <JCHEM_RULE_OF_FIVE>
1

>  <ALOGPS_SOLUBILITY>
1.36e-02 g/l

>  <JCHEM_TRADITIONAL_IUPAC>
cyproheptadine

>  <JCHEM_VEBER_RULE>
1

>  <DRUGBANK_ID>
DB00434

>  <DRUG_GROUPS>
approved

>  <GENERIC_NAME>
Cyproheptadine

>  <SYNONYMS>
1-methyl-4-(5-dibenzo(a,e)cycloheptatrienylidene)piperidine; 1-Methyl-4-(5H-dibenzo(a,d)cycloheptenylidene)piperidine; 5-(1-methylpiperidylidene-4)-5H-dibenzo(a,d)cyclopheptene; Axoprol; Ciproheptadina; Cyproheptadin; Cyproheptadine; Cyproheptadinum; Dihexazin; Glutodina

>  <BRANDS>
Apeplus; Apitup; Biohept; Ciplactin; Cipractine; Ciproheptadina; Ciprovit; Ciptadine; Cyheptine; Cyllermin; Periactin; Periactine; Periatin; Reactin

>  <SALTS>
Cyproheptadine Hydrochloride

$$$$
Allopurinol
 OpenBabel02121510022D

 10 11  0  0  0  0  0  0  0  0999 V2000
    2.3640    1.4000    0.0000 O   0  0  0  0  0  0  0  0  0  0  0  0
    3.8600   -0.9140    0.0000 N   0  0  0  0  0  0  0  0  0  0  0  0
    4.3410   -0.2500    0.0000 N   0  0  0  0  0  0  0  0  0  0  0  0
    2.3640   -1.0750    0.0000 N   0  0  0  0  0  0  0  0  0  0  0  0
    1.6500    0.1620    0.0000 N   0  0  0  0  0  0  0  0  0  0  0  0
    3.0790    0.1620    0.0000 C   0  0  0  0  0  0  0  0  0  0  0  0
    3.0790   -0.6620    0.0000 C   0  0  0  0  0  0  0  0  0  0  0  0
    3.8600    0.4140    0.0000 C   0  0  0  0  0  0  0  0  0  0  0  0
    2.3640    0.5750    0.0000 C   0  0  0  0  0  0  0  0  0  0  0  0
    1.6500   -0.6620    0.0000 C   0  0  0  0  0  0  0  0  0  0  0  0
  1  9  2  0  0  0  0
  2  3  1  0  0  0  0
  2  7  1  0  0  0  0
  3  8  1  0  0  0  0
  4  7  2  0  0  0  0
  4 10  1  0  0  0  0
  5  9  1  0  0  0  0
  5 10  2  0  0  0  0
  6  7  1  0  0  0  0
  6  8  2  0  0  0  0
  6  9  1  0  0  0  0
M  END
>  <DATABASE_ID>
DB00437

>  <DATABASE_NAME>
drugbank

>  <SMILES>
O=C1N=CN=C2NNC=C12

>  <INCHI_IDENTIFIER>
InChI=1S/C5H4N4O/c10-5-3-1-8-9-4(3)6-2-7-5/h1-2H,(H2,6,7,8,9,10)

>  <INCHI_KEY>
InChIKey=OFCNXPDARWKPPY-UHFFFAOYSA-N

>  <JCHEM_ACCEPTOR_COUNT>
5

>  <JCHEM_AVERAGE_POLARIZABILITY>
11.665587

>  <JCHEM_BIOAVAILABILITY>
1

>  <JCHEM_DONOR_COUNT>
2

>  <JCHEM_EXACT_MASS>
136.03851

>  <JCHEM_FORMAL_CHARGE>
0

>  <JCHEM_FORMULA>
C5H4N4O

>  <JCHEM_GHOSE_FILTER>
0

>  <JCHEM_IUPAC>
1H,2H,4H-pyrazolo[3,4-d]pyrimidin-4-one

>  <ALOGPS_LOGP>
-1.72

>  <JCHEM_LOGP>
-1.7583064

>  <ALOGPS_LOGS>
-1.36

>  <JCHEM_MASS>
136.1115

>  <JCHEM_MDDR_LIKE_RULE>
0

>  <JCHEM_NUMBER_OF_RINGS>
2

>  <JCHEM_PHYSIOLOGICAL_CHARGE>
0

>  <JCHEM_PKA>
16.52986

>  <JCHEM_PKA_STRONGEST_ACIDIC>
7.828742

>  <JCHEM_PKA_STRONGEST_BASIC>
2.5670121

>  <JCHEM_POLAR_SURFACE_AREA>
65.849998

>  <JCHEM_REFRACTIVITY>
54.242599

>  <JCHEM_ROTATABLE_BOND_COUNT>
0

>  <JCHEM_RULE_OF_FIVE>
1

>  <ALOGPS_SOLUBILITY>
5.88e+00 g/l

>  <JCHEM_TRADITIONAL_IUPAC>
allopurinol

>  <JCHEM_VEBER_RULE>
0

>  <DRUGBANK_ID>
DB00437

>  <DRUG_GROUPS>
approved

>  <GENERIC_NAME>
Allopurinol

>  <SYNONYMS>
4-HPP; 4-Hydroxypyrazolopyrimidine; Allopurinolum; Alopurinol

>  <BRANDS>
Adenock; Allohexal; Alloril; Aloprim; Aluron; Milurit; Progout; Zyloprim; Zyloric; Zyrik

>  <SALTS>
Allopurinol Sodium

$$$$
Trimethoprim
 OpenBabel02121510022D

 21 22  0  0  0  0  0  0  0  0999 V2000
    6.3800    1.7000    0.0000 O   0  0  0  0  0  0  0  0  0  0  0  0
    3.5220    1.7000    0.0000 O   0  0  0  0  0  0  0  0  0  0  0  0
    4.9510    2.5250    0.0000 O   0  0  0  0  0  0  0  0  0  0  0  0
    3.5220   -2.4260    0.0000 N   0  0  0  0  0  0  0  0  0  0  0  0
    2.8080   -1.1880    0.0000 N   0  0  0  0  0  0  0  0  0  0  0  0
    4.9510   -2.4260    0.0000 N   0  0  0  0  0  0  0  0  0  0  0  0
    2.0930   -2.4260    0.0000 N   0  0  0  0  0  0  0  0  0  0  0  0
    4.9510   -0.7760    0.0000 C   0  0  0  0  0  0  0  0  0  0  0  0
    4.9510    0.0500    0.0000 C   0  0  0  0  0  0  0  0  0  0  0  0
    4.2360   -1.1880    0.0000 C   0  0  0  0  0  0  0  0  0  0  0  0
    4.2360    0.4620    0.0000 C   0  0  0  0  0  0  0  0  0  0  0  0
    5.6660    0.4620    0.0000 C   0  0  0  0  0  0  0  0  0  0  0  0
    5.6660    1.2870    0.0000 C   0  0  0  0  0  0  0  0  0  0  0  0
    4.2360    1.2870    0.0000 C   0  0  0  0  0  0  0  0  0  0  0  0
    4.9510    1.7000    0.0000 C   0  0  0  0  0  0  0  0  0  0  0  0
    4.2360   -2.0130    0.0000 C   0  0  0  0  0  0  0  0  0  0  0  0
    3.5220   -0.7760    0.0000 C   0  0  0  0  0  0  0  0  0  0  0  0
    2.8080   -2.0130    0.0000 C   0  0  0  0  0  0  0  0  0  0  0  0
    7.0940    1.2870    0.0000 C   0  0  0  0  0  0  0  0  0  0  0  0
    2.8080    1.2870    0.0000 C   0  0  0  0  0  0  0  0  0  0  0  0
    5.6660    2.9370    0.0000 C   0  0  0  0  0  0  0  0  0  0  0  0
  1 13  1  0  0  0  0
  1 19  1  0  0  0  0
  2 14  1  0  0  0  0
  2 20  1  0  0  0  0
  3 15  1  0  0  0  0
  3 21  1  0  0  0  0
  4 16  2  0  0  0  0
  4 18  1  0  0  0  0
  5 17  1  0  0  0  0
  5 18  2  0  0  0  0
  6 16  1  0  0  0  0
  7 18  1  0  0  0  0
  8  9  1  0  0  0  0
  8 10  1  0  0  0  0
  9 11  1  0  0  0  0
  9 12  2  0  0  0  0
 10 16  1  0  0  0  0
 10 17  2  0  0  0  0
 11 14  2  0  0  0  0
 12 13  1  0  0  0  0
 13 15  2  0  0  0  0
 14 15  1  0  0  0  0
M  END
>  <DATABASE_ID>
DB00440

>  <DATABASE_NAME>
drugbank

>  <SMILES>
O(C)c1c(OC)cc(cc1OC)Cc1cnc(nc1N)N

>  <INCHI_IDENTIFIER>
InChI=1S/C14H18N4O3/c1-19-10-5-8(6-11(20-2)12(10)21-3)4-9-7-17-14(16)18-13(9)15/h5-7H,4H2,1-3H3,(H4,15,16,17,18)

>  <INCHI_KEY>
InChIKey=IEDVJHCEMCRBQM-UHFFFAOYSA-N

>  <JCHEM_ACCEPTOR_COUNT>
7

>  <JCHEM_AVERAGE_POLARIZABILITY>
29.713703

>  <JCHEM_BIOAVAILABILITY>
1

>  <JCHEM_DONOR_COUNT>
2

>  <JCHEM_EXACT_MASS>
290.13788

>  <JCHEM_FORMAL_CHARGE>
0

>  <JCHEM_FORMULA>
C14H18N4O3

>  <JCHEM_GHOSE_FILTER>
1

>  <JCHEM_IUPAC>
5-[(3,4,5-trimethoxyphenyl)methyl]pyrimidine-2,4-diamine

>  <ALOGPS_LOGP>
1.26

>  <JCHEM_LOGP>
1.2839073

>  <ALOGPS_LOGS>
-2.6700001

>  <JCHEM_MASS>
290.31769

>  <JCHEM_MDDR_LIKE_RULE>
0

>  <JCHEM_NUMBER_OF_RINGS>
2

>  <JCHEM_PHYSIOLOGICAL_CHARGE>
1

>  <JCHEM_PKA_STRONGEST_ACIDIC>
17.334406

>  <JCHEM_PKA_STRONGEST_BASIC>
7.1563191

>  <JCHEM_POLAR_SURFACE_AREA>
105.51

>  <JCHEM_REFRACTIVITY>
81.509399

>  <JCHEM_ROTATABLE_BOND_COUNT>
5

>  <JCHEM_RULE_OF_FIVE>
1

>  <ALOGPS_SOLUBILITY>
6.15e-01 g/l

>  <JCHEM_TRADITIONAL_IUPAC>
trimethoprim

>  <JCHEM_VEBER_RULE>
0

>  <DRUGBANK_ID>
DB00440

>  <DRUG_GROUPS>
approved

>  <GENERIC_NAME>
Trimethoprim

>  <SYNONYMS>
Trimethoprim; Triméthoprime; Trimethoprimum; Trimetoprima

>  <BRANDS>
Alprim; Catin; Eumi; Inflamnil; Lannacher; Lariago; Meprim; Metipine; Monotrim; Motrim; Primsol; Proloprim; Trimpex; Triprim

$$$$
Entecavir
 OpenBabel02121510022D

 20 22  0  0  1  0  0  0  0  0999 V2000
    5.0220    2.3280    0.0000 O   0  0  0  0  0  0  0  0  0  0  0  0
    6.6430    2.5910    0.0000 O   0  0  0  0  0  0  0  0  0  0  0  0
    3.5220   -2.8900    0.0000 O   0  0  0  0  0  0  0  0  0  0  0  0
    5.0170   -0.5770    0.0000 N   0  0  0  0  0  0  0  0  0  0  0  0
    3.5220   -0.4160    0.0000 N   0  0  0  0  0  0  0  0  0  0  0  0
    5.0170   -1.9040    0.0000 N   0  0  0  0  0  0  0  0  0  0  0  0
    2.8080   -1.6530    0.0000 N   0  0  0  0  0  0  0  0  0  0  0  0
    2.0930   -0.4160    0.0000 N   0  0  0  0  0  0  0  0  0  0  0  0
    5.2730    0.2080    0.0000 C   0  0  1  0  0  0  0  0  0  0  0  0
    6.0600    1.2860    0.0000 C   0  0  2  0  0  0  0  0  0  0  0  0
    5.2760    1.5420    0.0000 C   0  0  2  0  0  0  0  0  0  0  0  0
    4.7900    0.8760    0.0000 C   0  0  0  0  0  0  0  0  0  0  0  0
    6.0580    0.4610    0.0000 C   0  0  0  0  0  0  0  0  0  0  0  0
    6.7280    1.7700    0.0000 C   0  0  0  0  0  0  0  0  0  0  0  0
    4.2360   -0.8280    0.0000 C   0  0  0  0  0  0  0  0  0  0  0  0
    6.7250   -0.0250    0.0000 C   0  0  0  0  0  0  0  0  0  0  0  0
    5.4980   -1.2400    0.0000 C   0  0  0  0  0  0  0  0  0  0  0  0
    4.2360   -1.6530    0.0000 C   0  0  0  0  0  0  0  0  0  0  0  0
    3.5220   -2.0660    0.0000 C   0  0  0  0  0  0  0  0  0  0  0  0
    2.8080   -0.8280    0.0000 C   0  0  0  0  0  0  0  0  0  0  0  0
  2 14  1  0  0  0  0
  3 19  2  0  0  0  0
  4 15  1  0  0  0  0
  4 17  1  0  0  0  0
  5 15  1  0  0  0  0
  5 20  1  0  0  0  0
  6 17  2  0  0  0  0
  6 18  1  0  0  0  0
  7 19  1  0  0  0  0
  7 20  2  0  0  0  0
  8 20  1  0  0  0  0
  9  4  1  1  0  0  0
  9 12  1  0  0  0  0
  9 13  1  0  0  0  0
 10 11  1  0  0  0  0
 10 13  1  0  0  0  0
 10 14  1  1  0  0  0
 11  1  1  6  0  0  0
 11 12  1  0  0  0  0
 13 16  2  0  0  0  0
 15 18  2  0  0  0  0
 18 19  1  0  0  0  0
M  END
>  <DATABASE_ID>
DB00442

>  <DATABASE_NAME>
drugbank

>  <SMILES>
O=C1N=C(Nc2n(cnc12)[C@H]1C[C@H](O)[C@@H](CO)C1=C)N

>  <INCHI_IDENTIFIER>
InChI=1S/C12H15N5O3/c1-5-6(3-18)8(19)2-7(5)17-4-14-9-10(17)15-12(13)16-11(9)20/h4,6-8,18-19H,1-3H2,(H3,13,15,16,20)/t6-,7-,8-/m0/s1

>  <INCHI_KEY>
InChIKey=QDGZDCVAUDNJFG-FXQIFTODSA-N

>  <JCHEM_ACCEPTOR_COUNT>
7

>  <JCHEM_AVERAGE_POLARIZABILITY>
27.308722

>  <JCHEM_BIOAVAILABILITY>
1

>  <JCHEM_DONOR_COUNT>
4

>  <JCHEM_EXACT_MASS>
277.11749

>  <JCHEM_FORMAL_CHARGE>
0

>  <JCHEM_FORMULA>
C12H15N5O3

>  <JCHEM_GHOSE_FILTER>
0

>  <JCHEM_IUPAC>
2-amino-9-[(1S,3R,4S)-4-hydroxy-3-(hydroxymethyl)-2-methylidenecyclopentyl]-6,9-dihydro-3H-purin-6-one

>  <ALOGPS_LOGP>
-0.81

>  <JCHEM_LOGP>
-1.4446591

>  <ALOGPS_LOGS>
-1.62

>  <JCHEM_MASS>
277.27921

>  <JCHEM_MDDR_LIKE_RULE>
0

>  <JCHEM_NUMBER_OF_RINGS>
3

>  <JCHEM_PHYSIOLOGICAL_CHARGE>
0

>  <JCHEM_PKA>
14.64255

>  <JCHEM_PKA_STRONGEST_ACIDIC>
8.0033026

>  <JCHEM_PKA_STRONGEST_BASIC>
2.773114

>  <JCHEM_POLAR_SURFACE_AREA>
125.76

>  <JCHEM_REFRACTIVITY>
71.000801

>  <JCHEM_ROTATABLE_BOND_COUNT>
2

>  <JCHEM_RULE_OF_FIVE>
1

>  <ALOGPS_SOLUBILITY>
6.59e+00 g/l

>  <JCHEM_TRADITIONAL_IUPAC>
entecavir

>  <JCHEM_VEBER_RULE>
0

>  <DRUGBANK_ID>
DB00442

>  <DRUG_GROUPS>
approved; investigational

>  <GENERIC_NAME>
Entecavir

>  <SYNONYMS>
Entecavir; Entecavirum

>  <BRANDS>
Baraclude; Barcavir; Caavirel; Entaliv; Teviral

$$$$
Lansoprazole
 OpenBabel02121510022D

 25 27  0  0  1  0  0  0  0  0999 V2000
    5.1660    1.2110    0.0000 S   0  0  3  0  0  0  0  0  0  0  0  0
    8.5770   -2.0590    0.0000 F   0  0  0  0  0  0  0  0  0  0  0  0
   10.0060   -1.2340    0.0000 F   0  0  0  0  0  0  0  0  0  0  0  0
    9.7040   -2.3610    0.0000 F   0  0  0  0  0  0  0  0  0  0  0  0
    8.0540   -0.9320    0.0000 O   0  0  0  0  0  0  0  0  0  0  0  0
    5.5790    1.9260    0.0000 O   0  0  0  0  0  0  0  0  0  0  0  0
    3.8600    1.8750    0.0000 N   0  0  0  0  0  0  0  0  0  0  0  0
    3.8600    0.5470    0.0000 N   0  0  0  0  0  0  0  0  0  0  0  0
    6.8160    1.2110    0.0000 N   0  0  0  0  0  0  0  0  0  0  0  0
    5.5790    0.4970    0.0000 C   0  0  0  0  0  0  0  0  0  0  0  0
    6.4040    0.4970    0.0000 C   0  0  0  0  0  0  0  0  0  0  0  0
    6.8160   -0.2180    0.0000 C   0  0  0  0  0  0  0  0  0  0  0  0
    4.3410    1.2110    0.0000 C   0  0  0  0  0  0  0  0  0  0  0  0
    3.0790    1.6240    0.0000 C   0  0  0  0  0  0  0  0  0  0  0  0
    3.0790    0.7990    0.0000 C   0  0  0  0  0  0  0  0  0  0  0  0
    7.6410   -0.2180    0.0000 C   0  0  0  0  0  0  0  0  0  0  0  0
    6.4040   -0.9320    0.0000 C   0  0  0  0  0  0  0  0  0  0  0  0
    2.3640    2.0360    0.0000 C   0  0  0  0  0  0  0  0  0  0  0  0
    8.0540    0.4970    0.0000 C   0  0  0  0  0  0  0  0  0  0  0  0
    2.3640    0.3860    0.0000 C   0  0  0  0  0  0  0  0  0  0  0  0
    7.6410    1.2110    0.0000 C   0  0  0  0  0  0  0  0  0  0  0  0
    1.6500    1.6240    0.0000 C   0  0  0  0  0  0  0  0  0  0  0  0
    1.6500    0.7990    0.0000 C   0  0  0  0  0  0  0  0  0  0  0  0
    8.8790   -0.9320    0.0000 C   0  0  0  0  0  0  0  0  0  0  0  0
    9.2910   -1.6470    0.0000 C   0  0  0  0  0  0  0  0  0  0  0  0
  1  6  2  0  0  0  0
  1 10  1  0  0  0  0
  1 13  1  0  0  0  0
  2 25  1  0  0  0  0
  3 25  1  0  0  0  0
  4 25  1  0  0  0  0
  5 16  1  0  0  0  0
  5 24  1  0  0  0  0
  7 13  1  0  0  0  0
  7 14  1  0  0  0  0
  8 13  2  0  0  0  0
  8 15  1  0  0  0  0
  9 11  1  0  0  0  0
  9 21  2  0  0  0  0
 10 11  1  0  0  0  0
 11 12  2  0  0  0  0
 12 16  1  0  0  0  0
 12 17  1  0  0  0  0
 14 15  2  0  0  0  0
 14 18  1  0  0  0  0
 15 20  1  0  0  0  0
 16 19  2  0  0  0  0
 18 22  2  0  0  0  0
 19 21  1  0  0  0  0
 20 23  2  0  0  0  0
 22 23  1  0  0  0  0
 24 25  1  0  0  0  0
M  END
>  <DATABASE_ID>
DB00448

>  <DATABASE_NAME>
drugbank

>  <SMILES>
S(=O)(Cc1nccc(OCC(F)(F)F)c1C)c1[nH]c2c(n1)cccc2

>  <INCHI_IDENTIFIER>
InChI=1S/C16H14F3N3O2S/c1-10-13(20-7-6-14(10)24-9-16(17,18)19)8-25(23)15-21-11-4-2-3-5-12(11)22-15/h2-7H,8-9H2,1H3,(H,21,22)

>  <INCHI_KEY>
InChIKey=MJIHNNLFOKEZEW-UHFFFAOYSA-N

>  <JCHEM_ACCEPTOR_COUNT>
4

>  <JCHEM_AVERAGE_POLARIZABILITY>
34.590694

>  <JCHEM_BIOAVAILABILITY>
1

>  <JCHEM_DONOR_COUNT>
1

>  <JCHEM_EXACT_MASS>
369.0759

>  <JCHEM_FORMAL_CHARGE>
0

>  <JCHEM_FORMULA>
C16H14F3N3O2S

>  <JCHEM_GHOSE_FILTER>
1

>  <JCHEM_IUPAC>
2-({[3-methyl-4-(2,2,2-trifluoroethoxy)pyridin-2-yl]methane}sulfinyl)-1H-1,3-benzodiazole

>  <ALOGPS_LOGP>
2.8399999

>  <JCHEM_LOGP>
3.0328553

>  <ALOGPS_LOGS>
-3.1700001

>  <JCHEM_MASS>
369.36099

>  <JCHEM_MDDR_LIKE_RULE>
1

>  <JCHEM_NUMBER_OF_RINGS>
3

>  <JCHEM_PHYSIOLOGICAL_CHARGE>
0

>  <JCHEM_PKA>
17.302744

>  <JCHEM_PKA_STRONGEST_ACIDIC>
9.3467102

>  <JCHEM_PKA_STRONGEST_BASIC>
4.1629386

>  <JCHEM_POLAR_SURFACE_AREA>
67.870003

>  <JCHEM_REFRACTIVITY>
87.608002

>  <JCHEM_ROTATABLE_BOND_COUNT>
6

>  <JCHEM_RULE_OF_FIVE>
1

>  <ALOGPS_SOLUBILITY>
2.50e-01 g/l

>  <JCHEM_TRADITIONAL_IUPAC>
2-{[3-methyl-4-(2,2,2-trifluoroethoxy)pyridin-2-yl]methanesulfinyl}-1H-1,3-benzodiazole

>  <JCHEM_VEBER_RULE>
0

>  <DRUGBANK_ID>
DB00448

>  <DRUG_GROUPS>
approved; investigational

>  <GENERIC_NAME>
Lansoprazole

>  <SYNONYMS>
Lansoprazol; Lansoprazole; Lansoprazolum

>  <BRANDS>
Agopton; Bamalite; Lansoloc; Lanzol; Lanzopral; Lanzopran; Limpidex; Monolitum; Ogast; Ogastro; Opiren; Prevacid; Prevacid 24HR; Prevacid IV; Prevacid Solutab; Prosogan; Takepron; Ulpax; Zoprol; Zoton

$$$$
Levothyroxine
 OpenBabel02121510022D

 24 25  0  0  1  0  0  0  0  0999 V2000
    4.9510    0.6680    0.0000 I   0  0  0  0  0  0  0  0  0  0  0  0
    2.0930    0.6680    0.0000 I   0  0  0  0  0  0  0  0  0  0  0  0
    6.3800    1.4930    0.0000 I   0  0  0  0  0  0  0  0  0  0  0  0
    4.9510    3.9680    0.0000 I   0  0  0  0  0  0  0  0  0  0  0  0
    3.5220    1.4930    0.0000 O   0  0  0  0  0  0  0  0  0  0  0  0
    2.0930   -3.4570    0.0000 O   0  0  0  0  0  0  0  0  0  0  0  0
    3.5220   -3.4570    0.0000 O   0  0  0  0  0  0  0  0  0  0  0  0
    6.3800    3.1430    0.0000 O   0  0  0  0  0  0  0  0  0  0  0  0
    2.0930   -1.8070    0.0000 N   0  0  0  0  0  0  0  0  0  0  0  0
    3.5220   -1.8070    0.0000 C   0  0  0  0  0  0  0  0  0  0  0  0
    2.8080   -2.2190    0.0000 C   0  0  1  0  0  0  0  0  0  0  0  0
    3.5220   -0.9820    0.0000 C   0  0  0  0  0  0  0  0  0  0  0  0
    2.8080   -0.5690    0.0000 C   0  0  0  0  0  0  0  0  0  0  0  0
    4.2360   -0.5690    0.0000 C   0  0  0  0  0  0  0  0  0  0  0  0
    3.5220    0.6680    0.0000 C   0  0  0  0  0  0  0  0  0  0  0  0
    4.2360    0.2560    0.0000 C   0  0  0  0  0  0  0  0  0  0  0  0
    2.8080    0.2560    0.0000 C   0  0  0  0  0  0  0  0  0  0  0  0
    2.8080   -3.0440    0.0000 C   0  0  0  0  0  0  0  0  0  0  0  0
    4.2360    1.9060    0.0000 C   0  0  0  0  0  0  0  0  0  0  0  0
    4.2360    2.7310    0.0000 C   0  0  0  0  0  0  0  0  0  0  0  0
    4.9510    1.4930    0.0000 C   0  0  0  0  0  0  0  0  0  0  0  0
    5.6660    1.9060    0.0000 C   0  0  0  0  0  0  0  0  0  0  0  0
    4.9510    3.1430    0.0000 C   0  0  0  0  0  0  0  0  0  0  0  0
    5.6660    2.7310    0.0000 C   0  0  0  0  0  0  0  0  0  0  0  0
  1 16  1  0  0  0  0
  2 17  1  0  0  0  0
  3 22  1  0  0  0  0
  4 23  1  0  0  0  0
  5 15  1  0  0  0  0
  5 19  1  0  0  0  0
  6 18  1  0  0  0  0
  7 18  2  0  0  0  0
  8 24  1  0  0  0  0
 10 12  1  0  0  0  0
 11 10  1  1  0  0  0
 11  9  1  0  0  0  0
 11 18  1  0  0  0  0
 12 13  1  0  0  0  0
 12 14  2  0  0  0  0
 13 17  2  0  0  0  0
 14 16  1  0  0  0  0
 15 16  2  0  0  0  0
 15 17  1  0  0  0  0
 19 20  1  0  0  0  0
 19 21  2  0  0  0  0
 20 23  2  0  0  0  0
 21 22  1  0  0  0  0
 22 24  2  0  0  0  0
 23 24  1  0  0  0  0
M  END
>  <DATABASE_ID>
DB00451

>  <DATABASE_NAME>
drugbank

>  <SMILES>
Ic1cc(cc(I)c1Oc1cc(I)c(O)c(I)c1)C[C@H](N)C(O)=O

>  <INCHI_IDENTIFIER>
InChI=1S/C15H11I4NO4/c16-8-4-7(5-9(17)13(8)21)24-14-10(18)1-6(2-11(14)19)3-12(20)15(22)23/h1-2,4-5,12,21H,3,20H2,(H,22,23)/t12-/m0/s1

>  <INCHI_KEY>
InChIKey=XUIIKFGFIJCVMT-LBPRGKRZSA-N

>  <JCHEM_ACCEPTOR_COUNT>
4

>  <JCHEM_AVERAGE_POLARIZABILITY>
49.401554

>  <JCHEM_BIOAVAILABILITY>
1

>  <JCHEM_DONOR_COUNT>
3

>  <JCHEM_EXACT_MASS>
776.68671

>  <JCHEM_FORMAL_CHARGE>
0

>  <JCHEM_FORMULA>
C15H11I4NO4

>  <JCHEM_GHOSE_FILTER>
0

>  <JCHEM_IUPAC>
(2S)-2-amino-3-[4-(4-hydroxy-3,5-diiodophenoxy)-3,5-diiodophenyl]propanoic acid

>  <ALOGPS_LOGP>
1.15

>  <JCHEM_LOGP>
3.7273071

>  <ALOGPS_LOGS>
-4.9400001

>  <JCHEM_MASS>
776.87

>  <JCHEM_MDDR_LIKE_RULE>
0

>  <JCHEM_NUMBER_OF_RINGS>
2

>  <JCHEM_PHYSIOLOGICAL_CHARGE>
0

>  <JCHEM_PKA>
7.4267612

>  <JCHEM_PKA_STRONGEST_ACIDIC>
0.27336746

>  <JCHEM_PKA_STRONGEST_BASIC>
9.4333639

>  <JCHEM_POLAR_SURFACE_AREA>
92.779999

>  <JCHEM_REFRACTIVITY>
126.788

>  <JCHEM_ROTATABLE_BOND_COUNT>
5

>  <JCHEM_RULE_OF_FIVE>
0

>  <ALOGPS_SOLUBILITY>
8.98e-03 g/l

>  <JCHEM_TRADITIONAL_IUPAC>
levothyroxine

>  <JCHEM_VEBER_RULE>
0

>  <DRUGBANK_ID>
DB00451

>  <DRUG_GROUPS>
approved

>  <GENERIC_NAME>
Levothyroxine

>  <SYNONYMS>
3,3',5,5'-Tetraiodo-L-thyronine; L-T4; L-Thyroxine; O-(4-Hydroxy-3,5-diidophenyl)-3,5-diiodo-L-tyrosine; T4

>  <BRANDS>
Eltroxin; Euthyrox; Eutirox; Letrox; Levaxin; Levothroid; Levothyrox; Levoxyl; Novothyrox; Oroxine; Synthroid; Thyrax; Tirosint; Unithroid

>  <SALTS>
Levothyroxine Sodium

$$$$
Pethidine
 OpenBabel02121510022D

 18 19  0  0  0  0  0  0  0  0999 V2000
    2.8880    1.0150    0.0000 O   0  0  0  0  0  0  0  0  0  0  0  0
    3.8560    1.8280    0.0000 O   0  0  0  0  0  0  0  0  0  0  0  0
    4.1250   -1.3490    0.0000 N   0  0  0  0  0  0  0  0  0  0  0  0
    4.1250    0.3010    0.0000 C   0  0  0  0  0  0  0  0  0  0  0  0
    4.8400   -0.1120    0.0000 C   0  0  0  0  0  0  0  0  0  0  0  0
    3.4110   -0.1120    0.0000 C   0  0  0  0  0  0  0  0  0  0  0  0
    4.8400   -0.9370    0.0000 C   0  0  0  0  0  0  0  0  0  0  0  0
    3.4110   -0.9370    0.0000 C   0  0  0  0  0  0  0  0  0  0  0  0
    4.7570    0.8310    0.0000 C   0  0  0  0  0  0  0  0  0  0  0  0
    3.7130    1.0150    0.0000 C   0  0  0  0  0  0  0  0  0  0  0  0
    4.1250   -2.1740    0.0000 C   0  0  0  0  0  0  0  0  0  0  0  0
    4.6140    1.6440    0.0000 C   0  0  0  0  0  0  0  0  0  0  0  0
    5.5320    0.5490    0.0000 C   0  0  0  0  0  0  0  0  0  0  0  0
    5.2460    2.1740    0.0000 C   0  0  0  0  0  0  0  0  0  0  0  0
    6.1640    1.0800    0.0000 C   0  0  0  0  0  0  0  0  0  0  0  0
    6.0210    1.8920    0.0000 C   0  0  0  0  0  0  0  0  0  0  0  0
    2.4750    1.7300    0.0000 C   0  0  0  0  0  0  0  0  0  0  0  0
    1.6500    1.7300    0.0000 C   0  0  0  0  0  0  0  0  0  0  0  0
  1 10  1  0  0  0  0
  1 17  1  0  0  0  0
  2 10  2  0  0  0  0
  3  7  1  0  0  0  0
  3  8  1  0  0  0  0
  3 11  1  0  0  0  0
  4  5  1  0  0  0  0
  4  6  1  0  0  0  0
  4  9  1  0  0  0  0
  4 10  1  0  0  0  0
  5  7  1  0  0  0  0
  6  8  1  0  0  0  0
  9 12  2  0  0  0  0
  9 13  1  0  0  0  0
 12 14  1  0  0  0  0
 13 15  2  0  0  0  0
 14 16  2  0  0  0  0
 15 16  1  0  0  0  0
 17 18  1  0  0  0  0
M  END
>  <DATABASE_ID>
DB00454

>  <DATABASE_NAME>
drugbank

>  <SMILES>
O(C(=O)C1(CCN(CC1)C)c1ccccc1)CC

>  <INCHI_IDENTIFIER>
InChI=1S/C15H21NO2/c1-3-18-14(17)15(9-11-16(2)12-10-15)13-7-5-4-6-8-13/h4-8H,3,9-12H2,1-2H3

>  <INCHI_KEY>
InChIKey=XADCESSVHJOZHK-UHFFFAOYSA-N

>  <JCHEM_ACCEPTOR_COUNT>
2

>  <JCHEM_AVERAGE_POLARIZABILITY>
28.088457

>  <JCHEM_BIOAVAILABILITY>
1

>  <JCHEM_DONOR_COUNT>
0

>  <JCHEM_EXACT_MASS>
247.15723

>  <JCHEM_FORMAL_CHARGE>
0

>  <JCHEM_FORMULA>
C15H21NO2

>  <JCHEM_GHOSE_FILTER>
1

>  <JCHEM_IUPAC>
ethyl 1-methyl-4-phenylpiperidine-4-carboxylate

>  <ALOGPS_LOGP>
2.9000001

>  <JCHEM_LOGP>
2.4558003

>  <ALOGPS_LOGS>
-2.3499999

>  <JCHEM_MASS>
247.3327

>  <JCHEM_MDDR_LIKE_RULE>
0

>  <JCHEM_NUMBER_OF_RINGS>
2

>  <JCHEM_PHYSIOLOGICAL_CHARGE>
1

>  <JCHEM_PKA_STRONGEST_BASIC>
8.1596231

>  <JCHEM_POLAR_SURFACE_AREA>
29.540001

>  <JCHEM_REFRACTIVITY>
72.483704

>  <JCHEM_ROTATABLE_BOND_COUNT>
4

>  <JCHEM_RULE_OF_FIVE>
1

>  <ALOGPS_SOLUBILITY>
1.11e+00 g/l

>  <JCHEM_TRADITIONAL_IUPAC>
meperidine

>  <JCHEM_VEBER_RULE>
1

>  <DRUGBANK_ID>
DB00454

>  <DRUG_GROUPS>
approved

>  <GENERIC_NAME>
Pethidine

>  <SYNONYMS>
Isonipecaïne; Meperidine; Pethidin; Péthidine; Pethidinum; Petidina; Petydyna; Sauteralgyl; Spasmedal; Spasmodolin

>  <BRANDS>
Demerol; Dolantin; Dolcontral; Dolosal; Dolsin; Lydol; Mialgin; Petidin

>  <SALTS>
Meperidine hydrochloride; Pethidine hydrochloride

$$$$
Loratadine
 OpenBabel02121510022D

 27 30  0  0  0  0  0  0  0  0999 V2000
    1.6500    2.6660    0.0000 Cl  0  0  0  0  0  0  0  0  0  0  0  0
    5.5300   -2.1410    0.0000 O   0  0  0  0  0  0  0  0  0  0  0  0
    4.1010   -2.1410    0.0000 O   0  0  0  0  0  0  0  0  0  0  0  0
    4.8160   -0.9040    0.0000 N   0  0  0  0  0  0  0  0  0  0  0  0
    6.1800    1.3350    0.0000 N   0  0  0  0  0  0  0  0  0  0  0  0
    4.8160    0.7460    0.0000 C   0  0  0  0  0  0  0  0  0  0  0  0
    5.5300    0.3340    0.0000 C   0  0  0  0  0  0  0  0  0  0  0  0
    4.1010    0.3340    0.0000 C   0  0  0  0  0  0  0  0  0  0  0  0
    4.8160    1.5710    0.0000 C   0  0  0  0  0  0  0  0  0  0  0  0
    5.5300   -0.4910    0.0000 C   0  0  0  0  0  0  0  0  0  0  0  0
    4.1010   -0.4910    0.0000 C   0  0  0  0  0  0  0  0  0  0  0  0
    4.0730    1.9290    0.0000 C   0  0  0  0  0  0  0  0  0  0  0  0
    5.5590    1.9290    0.0000 C   0  0  0  0  0  0  0  0  0  0  0  0
    3.8890    2.7340    0.0000 C   0  0  0  0  0  0  0  0  0  0  0  0
    4.4030    3.3790    0.0000 C   0  0  0  0  0  0  0  0  0  0  0  0
    5.2280    3.3790    0.0000 C   0  0  0  0  0  0  0  0  0  0  0  0
    5.7430    2.7340    0.0000 C   0  0  0  0  0  0  0  0  0  0  0  0
    3.4520    1.3350    0.0000 C   0  0  0  0  0  0  0  0  0  0  0  0
    4.8160   -1.7290    0.0000 C   0  0  0  0  0  0  0  0  0  0  0  0
    3.0720    3.0000    0.0000 C   0  0  0  0  0  0  0  0  0  0  0  0
    6.5600    3.0000    0.0000 C   0  0  0  0  0  0  0  0  0  0  0  0
    2.6290    1.5820    0.0000 C   0  0  0  0  0  0  0  0  0  0  0  0
    2.4370    2.4200    0.0000 C   0  0  0  0  0  0  0  0  0  0  0  0
    7.1940    2.4200    0.0000 C   0  0  0  0  0  0  0  0  0  0  0  0
    7.0030    1.5820    0.0000 C   0  0  0  0  0  0  0  0  0  0  0  0
    5.5300   -2.9660    0.0000 C   0  0  0  0  0  0  0  0  0  0  0  0
    6.2450   -3.3790    0.0000 C   0  0  0  0  0  0  0  0  0  0  0  0
  1 23  1  0  0  0  0
  2 19  1  0  0  0  0
  2 26  1  0  0  0  0
  3 19  2  0  0  0  0
  4 10  1  0  0  0  0
  4 11  1  0  0  0  0
  4 19  1  0  0  0  0
  5 13  2  0  0  0  0
  5 25  1  0  0  0  0
  6  7  1  0  0  0  0
  6  8  1  0  0  0  0
  6  9  2  0  0  0  0
  7 10  1  0  0  0  0
  8 11  1  0  0  0  0
  9 12  1  0  0  0  0
  9 13  1  0  0  0  0
 12 14  2  0  0  0  0
 12 18  1  0  0  0  0
 13 17  1  0  0  0  0
 14 15  1  0  0  0  0
 14 20  1  0  0  0  0
 15 16  1  0  0  0  0
 16 17  1  0  0  0  0
 17 21  2  0  0  0  0
 18 22  2  0  0  0  0
 20 23  2  0  0  0  0
 21 24  1  0  0  0  0
 22 23  1  0  0  0  0
 24 25  2  0  0  0  0
 26 27  1  0  0  0  0
M  END
>  <DATABASE_ID>
DB00455

>  <DATABASE_NAME>
drugbank

>  <SMILES>
Clc1cc2c(cc1)C(c1ncccc1CC2)=C1CCN(CC1)C(OCC)=O

>  <INCHI_IDENTIFIER>
InChI=1S/C22H23ClN2O2/c1-2-27-22(26)25-12-9-15(10-13-25)20-19-8-7-18(23)14-17(19)6-5-16-4-3-11-24-21(16)20/h3-4,7-8,11,14H,2,5-6,9-10,12-13H2,1H3

>  <INCHI_KEY>
InChIKey=JCCNYMKQOSZNPW-UHFFFAOYSA-N

>  <JCHEM_ACCEPTOR_COUNT>
2

>  <JCHEM_AVERAGE_POLARIZABILITY>
41.674892

>  <JCHEM_BIOAVAILABILITY>
1

>  <JCHEM_DONOR_COUNT>
0

>  <JCHEM_EXACT_MASS>
382.14481

>  <JCHEM_FORMAL_CHARGE>
0

>  <JCHEM_FORMULA>
C22H23ClN2O2

>  <JCHEM_GHOSE_FILTER>
1

>  <JCHEM_IUPAC>
ethyl 4-{13-chloro-4-azatricyclo[9.4.0.0^{3,8}]pentadeca-1(11),3,5,7,12,14-hexaen-2-ylidene}piperidine-1-carboxylate

>  <ALOGPS_LOGP>
4.8000002

>  <JCHEM_LOGP>
4.5545793

>  <ALOGPS_LOGS>
-4.46

>  <JCHEM_MASS>
382.883

>  <JCHEM_MDDR_LIKE_RULE>
0

>  <JCHEM_NUMBER_OF_RINGS>
4

>  <JCHEM_PHYSIOLOGICAL_CHARGE>
0

>  <JCHEM_PKA_STRONGEST_BASIC>
4.3336172

>  <JCHEM_POLAR_SURFACE_AREA>
42.43

>  <JCHEM_REFRACTIVITY>
116.9769

>  <JCHEM_ROTATABLE_BOND_COUNT>
2

>  <JCHEM_RULE_OF_FIVE>
1

>  <ALOGPS_SOLUBILITY>
1.34e-02 g/l

>  <JCHEM_TRADITIONAL_IUPAC>
loratadine

>  <JCHEM_VEBER_RULE>
0

>  <DRUGBANK_ID>
DB00455

>  <DRUG_GROUPS>
approved

>  <GENERIC_NAME>
Loratadine

>  <SYNONYMS>
Loratadina; Loratadinum

>  <BRANDS>
Aerotina; Alavert; Biloina; Civeran; Claritin; Fristamin; Histaloran; Lomilan; Loracert; Loradex; Loranox; Lorastine; Loratadine antihistamine; Loratyne; Loritine; Nularef; Restamine; Roletra; Sensibit

$$$$
Prazosin
 OpenBabel02121510022D

 28 31  0  0  0  0  0  0  0  0999 V2000
    3.6700    2.3970    0.0000 O   0  0  0  0  0  0  0  0  0  0  0  0
    2.8700    0.3390    0.0000 O   0  0  0  0  0  0  0  0  0  0  0  0
   10.1550    0.3540    0.0000 O   0  0  0  0  0  0  0  0  0  0  0  0
   10.1550   -1.3360    0.0000 O   0  0  0  0  0  0  0  0  0  0  0  0
    5.8140    0.3340    0.0000 N   0  0  0  0  0  0  0  0  0  0  0  0
    4.3850    1.1590    0.0000 N   0  0  0  0  0  0  0  0  0  0  0  0
    7.2430    0.3340    0.0000 N   0  0  0  0  0  0  0  0  0  0  0  0
    6.5280   -0.9030    0.0000 N   0  0  0  0  0  0  0  0  0  0  0  0
    7.2430   -2.1410    0.0000 N   0  0  0  0  0  0  0  0  0  0  0  0
    5.0990   -0.0780    0.0000 C   0  0  0  0  0  0  0  0  0  0  0  0
    5.8140    1.1590    0.0000 C   0  0  0  0  0  0  0  0  0  0  0  0
    4.3850    0.3340    0.0000 C   0  0  0  0  0  0  0  0  0  0  0  0
    5.0990    1.5720    0.0000 C   0  0  0  0  0  0  0  0  0  0  0  0
    6.5280   -0.0780    0.0000 C   0  0  0  0  0  0  0  0  0  0  0  0
    3.6700    1.5720    0.0000 C   0  0  0  0  0  0  0  0  0  0  0  0
    7.9570   -0.0780    0.0000 C   0  0  0  0  0  0  0  0  0  0  0  0
    2.9560    1.1590    0.0000 C   0  0  0  0  0  0  0  0  0  0  0  0
    7.9570   -0.9030    0.0000 C   0  0  0  0  0  0  0  0  0  0  0  0
    7.2430   -1.3160    0.0000 C   0  0  0  0  0  0  0  0  0  0  0  0
    8.6950    0.3630    0.0000 C   0  0  0  0  0  0  0  0  0  0  0  0
    8.6950   -1.3440    0.0000 C   0  0  0  0  0  0  0  0  0  0  0  0
    2.2020    1.4950    0.0000 C   0  0  0  0  0  0  0  0  0  0  0  0
    9.4420   -0.0610    0.0000 C   0  0  0  0  0  0  0  0  0  0  0  0
    9.4420   -0.9200    0.0000 C   0  0  0  0  0  0  0  0  0  0  0  0
    1.6500    0.8820    0.0000 C   0  0  0  0  0  0  0  0  0  0  0  0
    2.0620    0.1670    0.0000 C   0  0  0  0  0  0  0  0  0  0  0  0
   10.1520    1.1790    0.0000 C   0  0  0  0  0  0  0  0  0  0  0  0
   10.8710   -0.9260    0.0000 C   0  0  0  0  0  0  0  0  0  0  0  0
  1 15  2  0  0  0  0
  2 17  1  0  0  0  0
  2 26  1  0  0  0  0
  3 23  1  0  0  0  0
  3 27  1  0  0  0  0
  4 24  1  0  0  0  0
  4 28  1  0  0  0  0
  5 10  1  0  0  0  0
  5 11  1  0  0  0  0
  5 14  1  0  0  0  0
  6 12  1  0  0  0  0
  6 13  1  0  0  0  0
  6 15  1  0  0  0  0
  7 14  2  0  0  0  0
  7 16  1  0  0  0  0
  8 14  1  0  0  0  0
  8 19  2  0  0  0  0
  9 19  1  0  0  0  0
 10 12  1  0  0  0  0
 11 13  1  0  0  0  0
 15 17  1  0  0  0  0
 16 18  2  0  0  0  0
 16 20  1  0  0  0  0
 17 22  2  0  0  0  0
 18 19  1  0  0  0  0
 18 21  1  0  0  0  0
 20 23  2  0  0  0  0
 21 24  2  0  0  0  0
 22 25  1  0  0  0  0
 23 24  1  0  0  0  0
 25 26  2  0  0  0  0
M  END
>  <DATABASE_ID>
DB00457

>  <DATABASE_NAME>
drugbank

>  <SMILES>
o1cccc1C(=O)N1CCN(CC1)c1nc(N)c2cc(OC)c(OC)cc2n1

>  <INCHI_IDENTIFIER>
InChI=1S/C19H21N5O4/c1-26-15-10-12-13(11-16(15)27-2)21-19(22-17(12)20)24-7-5-23(6-8-24)18(25)14-4-3-9-28-14/h3-4,9-11H,5-8H2,1-2H3,(H2,20,21,22)

>  <INCHI_KEY>
InChIKey=IENZQIKPVFGBNW-UHFFFAOYSA-N

>  <JCHEM_ACCEPTOR_COUNT>
7

>  <JCHEM_AVERAGE_POLARIZABILITY>
40.488823

>  <JCHEM_BIOAVAILABILITY>
1

>  <JCHEM_DONOR_COUNT>
1

>  <JCHEM_EXACT_MASS>
383.15936

>  <JCHEM_FORMAL_CHARGE>
0

>  <JCHEM_FORMULA>
C19H21N5O4

>  <JCHEM_GHOSE_FILTER>
1

>  <JCHEM_IUPAC>
2-{4-[(furan-2-yl)carbonyl]piperazin-1-yl}-6,7-dimethoxyquinazolin-4-amine

>  <ALOGPS_LOGP>
1.9299999

>  <JCHEM_LOGP>
1.6505165

>  <ALOGPS_LOGS>
-2.74

>  <JCHEM_MASS>
383.40109

>  <JCHEM_MDDR_LIKE_RULE>
0

>  <JCHEM_NUMBER_OF_RINGS>
4

>  <JCHEM_PHYSIOLOGICAL_CHARGE>
1

>  <JCHEM_PKA_STRONGEST_BASIC>
7.2429428

>  <JCHEM_POLAR_SURFACE_AREA>
106.95

>  <JCHEM_REFRACTIVITY>
104.4981

>  <JCHEM_ROTATABLE_BOND_COUNT>
4

>  <JCHEM_RULE_OF_FIVE>
1

>  <ALOGPS_SOLUBILITY>
6.93e-01 g/l

>  <JCHEM_TRADITIONAL_IUPAC>
prazosin

>  <JCHEM_VEBER_RULE>
0

>  <DRUGBANK_ID>
DB00457

>  <DRUG_GROUPS>
approved

>  <GENERIC_NAME>
Prazosin

>  <SYNONYMS>
Prazosina; Prazosine; Prazosinum

>  <BRANDS>
Hypovase; Minipress; Minipress Xl; Pressin; Vasoflex

>  <SALTS>
Prazosin Hydrochloride

$$$$
Imipramine
 OpenBabel02121510022D

 21 23  0  0  0  0  0  0  0  0999 V2000
    3.8680    0.7170    0.0000 N   0  0  0  0  0  0  0  0  0  0  0  0
    2.4960   -1.6600    0.0000 N   0  0  0  0  0  0  0  0  0  0  0  0
    3.8680   -0.0760    0.0000 C   0  0  0  0  0  0  0  0  0  0  0  0
    4.5820    1.0600    0.0000 C   0  0  0  0  0  0  0  0  0  0  0  0
    3.1540    1.0600    0.0000 C   0  0  0  0  0  0  0  0  0  0  0  0
    4.2640    2.4520    0.0000 C   0  0  0  0  0  0  0  0  0  0  0  0
    3.4720    2.4520    0.0000 C   0  0  0  0  0  0  0  0  0  0  0  0
    4.7580    1.8330    0.0000 C   0  0  0  0  0  0  0  0  0  0  0  0
    2.9780    1.8330    0.0000 C   0  0  0  0  0  0  0  0  0  0  0  0
    3.1820   -0.4720    0.0000 C   0  0  0  0  0  0  0  0  0  0  0  0
    3.1820   -1.2640    0.0000 C   0  0  0  0  0  0  0  0  0  0  0  0
    5.1780    0.4900    0.0000 C   0  0  0  0  0  0  0  0  0  0  0  0
    2.5580    0.4900    0.0000 C   0  0  0  0  0  0  0  0  0  0  0  0
    5.5420    2.0880    0.0000 C   0  0  0  0  0  0  0  0  0  0  0  0
    2.1930    2.0880    0.0000 C   0  0  0  0  0  0  0  0  0  0  0  0
    5.9680    0.7270    0.0000 C   0  0  0  0  0  0  0  0  0  0  0  0
    1.7680    0.7270    0.0000 C   0  0  0  0  0  0  0  0  0  0  0  0
    6.1520    1.5310    0.0000 C   0  0  0  0  0  0  0  0  0  0  0  0
    1.5840    1.5320    0.0000 C   0  0  0  0  0  0  0  0  0  0  0  0
    2.4960   -2.4520    0.0000 C   0  0  0  0  0  0  0  0  0  0  0  0
    1.8100   -1.2640    0.0000 C   0  0  0  0  0  0  0  0  0  0  0  0
  1  3  1  0  0  0  0
  1  4  1  0  0  0  0
  1  5  1  0  0  0  0
  2 11  1  0  0  0  0
  2 20  1  0  0  0  0
  2 21  1  0  0  0  0
  3 10  1  0  0  0  0
  4  8  2  0  0  0  0
  4 12  1  0  0  0  0
  5  9  2  0  0  0  0
  5 13  1  0  0  0  0
  6  7  1  0  0  0  0
  6  8  1  0  0  0  0
  7  9  1  0  0  0  0
  8 14  1  0  0  0  0
  9 15  1  0  0  0  0
 10 11  1  0  0  0  0
 12 16  2  0  0  0  0
 13 17  2  0  0  0  0
 14 18  2  0  0  0  0
 15 19  2  0  0  0  0
 16 18  1  0  0  0  0
 17 19  1  0  0  0  0
M  END
>  <DATABASE_ID>
DB00458

>  <DATABASE_NAME>
drugbank

>  <SMILES>
N(CCCN1c2c(CCc3c1cccc3)cccc2)(C)C

>  <INCHI_IDENTIFIER>
InChI=1S/C19H24N2/c1-20(2)14-7-15-21-18-10-5-3-8-16(18)12-13-17-9-4-6-11-19(17)21/h3-6,8-11H,7,12-15H2,1-2H3

>  <INCHI_KEY>
InChIKey=BCGWQEUPMDMJNV-UHFFFAOYSA-N

>  <JCHEM_ACCEPTOR_COUNT>
2

>  <JCHEM_AVERAGE_POLARIZABILITY>
33.391663

>  <JCHEM_BIOAVAILABILITY>
1

>  <JCHEM_DONOR_COUNT>
0

>  <JCHEM_EXACT_MASS>
280.19394

>  <JCHEM_FORMAL_CHARGE>
0

>  <JCHEM_FORMULA>
C19H24N2

>  <JCHEM_GHOSE_FILTER>
1

>  <JCHEM_IUPAC>
(3-{2-azatricyclo[9.4.0.0^{3,8}]pentadeca-1(11),3(8),4,6,12,14-hexaen-2-yl}propyl)dimethylamine

>  <ALOGPS_LOGP>
4.5300002

>  <JCHEM_LOGP>
4.2785687

>  <ALOGPS_LOGS>
-3.6300001

>  <JCHEM_MASS>
280.40729

>  <JCHEM_MDDR_LIKE_RULE>
0

>  <JCHEM_NUMBER_OF_RINGS>
3

>  <JCHEM_PHYSIOLOGICAL_CHARGE>
1

>  <JCHEM_PKA_STRONGEST_BASIC>
9.1969767

>  <JCHEM_POLAR_SURFACE_AREA>
6.48

>  <JCHEM_REFRACTIVITY>
90.605598

>  <JCHEM_ROTATABLE_BOND_COUNT>
4

>  <JCHEM_RULE_OF_FIVE>
1

>  <ALOGPS_SOLUBILITY>
6.64e-02 g/l

>  <JCHEM_TRADITIONAL_IUPAC>
imipramine

>  <JCHEM_VEBER_RULE>
1

>  <DRUGBANK_ID>
DB00458

>  <DRUG_GROUPS>
approved

>  <GENERIC_NAME>
Imipramine

>  <SYNONYMS>
Imipramin; Imizine; N-(γ-dimethylaminopropyl)iminodibenzyl

>  <BRANDS>
Antidep; Depsonil; Depsonil-PM; Elamin; Fronil; Imidol; Imipramin Dak; Imiprex; Pramin; Tofranil; TOFRANIL-PM

>  <SALTS>
Imipramine Hydrochloride; Imipramine Pamoate

$$$$
Acitretin
 OpenBabel02121510022D

 24 24  0  0  0  0  0  0  0  0999 V2000
   -2.3120    1.8250    0.0000 C   0  0  0  0  0  0  0  0  0  0  0  0
   -3.0270    1.4120    0.0000 C   0  0  0  0  0  0  0  0  0  0  0  0
   -3.0270    0.5880    0.0000 C   0  0  0  0  0  0  0  0  0  0  0  0
   -2.3120    0.1750    0.0000 C   0  0  0  0  0  0  0  0  0  0  0  0
   -1.5980    0.5880    0.0000 C   0  0  0  0  0  0  0  0  0  0  0  0
   -1.5980    1.4120    0.0000 C   0  0  0  0  0  0  0  0  0  0  0  0
   -2.3120    2.6500    0.0000 C   0  0  0  0  0  0  0  0  0  0  0  0
   -3.7410    1.8250    0.0000 C   0  0  0  0  0  0  0  0  0  0  0  0
   -4.4560    0.5880    0.0000 C   0  0  0  0  0  0  0  0  0  0  0  0
   -0.8840    0.1750    0.0000 C   0  0  0  0  0  0  0  0  0  0  0  0
   -0.8840    1.8250    0.0000 C   0  0  0  0  0  0  0  0  0  0  0  0
   -0.1690    1.4120    0.0000 C   0  0  0  0  0  0  0  0  0  0  0  0
    1.2600    1.4120    0.0000 C   0  0  0  0  0  0  0  0  0  0  0  0
    1.9740    1.8250    0.0000 C   0  0  0  0  0  0  0  0  0  0  0  0
    2.6890    1.4120    0.0000 C   0  0  0  0  0  0  0  0  0  0  0  0
    4.1180    1.4120    0.0000 C   0  0  0  0  0  0  0  0  0  0  0  0
   -3.7410    0.1750    0.0000 O   0  0  0  0  0  0  0  0  0  0  0  0
    4.8320    2.6500    0.0000 O   0  0  0  0  0  0  0  0  0  0  0  0
    4.8320    1.8250    0.0000 C   0  0  0  0  0  0  0  0  0  0  0  0
    5.5470    1.4120    0.0000 O   0  0  0  0  0  0  0  0  0  0  0  0
    0.5450    1.8250    0.0000 C   0  0  0  0  0  0  0  0  0  0  0  0
    0.5450    2.6500    0.0000 C   0  0  0  0  0  0  0  0  0  0  0  0
    3.4030    1.8250    0.0000 C   0  0  0  0  0  0  0  0  0  0  0  0
    3.4030    2.6500    0.0000 C   0  0  0  0  0  0  0  0  0  0  0  0
  1  2  2  0  0  0  0
  1  6  1  0  0  0  0
  1  7  1  0  0  0  0
  2  3  1  0  0  0  0
  2  8  1  0  0  0  0
  3  4  2  0  0  0  0
  3 17  1  0  0  0  0
  4  5  1  0  0  0  0
  5  6  2  0  0  0  0
  5 10  1  0  0  0  0
  6 11  1  0  0  0  0
  9 17  1  0  0  0  0
 11 12  2  0  0  0  0
 12 21  1  0  0  0  0
 13 14  1  0  0  0  0
 13 21  2  0  0  0  0
 14 15  2  0  0  0  0
 15 23  1  0  0  0  0
 16 19  1  0  0  0  0
 16 23  2  0  0  0  0
 18 19  2  0  0  0  0
 19 20  1  0  0  0  0
 21 22  1  0  0  0  0
 23 24  1  0  0  0  0
M  END
>  <DATABASE_ID>
DB00459

>  <DATABASE_NAME>
drugbank

>  <SMILES>
O(C)c1cc(C)c(\C=C\C(=C\C=C\C(=C\C(O)=O)\C)\C)c(C)c1C

>  <INCHI_IDENTIFIER>
InChI=1S/C21H26O3/c1-14(8-7-9-15(2)12-21(22)23)10-11-19-16(3)13-20(24-6)18(5)17(19)4/h7-13H,1-6H3,(H,22,23)/b9-7+,11-10+,14-8+,15-12+

>  <INCHI_KEY>
InChIKey=IHUNBGSDBOWDMA-AQFIFDHZSA-N

>  <JCHEM_ACCEPTOR_COUNT>
3

>  <JCHEM_AVERAGE_POLARIZABILITY>
38.543934

>  <JCHEM_BIOAVAILABILITY>
1

>  <JCHEM_DONOR_COUNT>
1

>  <JCHEM_EXACT_MASS>
326.1882

>  <JCHEM_FORMAL_CHARGE>
0

>  <JCHEM_FORMULA>
C21H26O3

>  <JCHEM_GHOSE_FILTER>
1

>  <JCHEM_IUPAC>
(2E,4E,6E,8E)-9-(4-methoxy-2,3,6-trimethylphenyl)-3,7-dimethylnona-2,4,6,8-tetraenoic acid

>  <ALOGPS_LOGP>
5.1999998

>  <JCHEM_LOGP>
5.5870485

>  <ALOGPS_LOGS>
-5.8299999

>  <JCHEM_MASS>
326.42929

>  <JCHEM_MDDR_LIKE_RULE>
0

>  <JCHEM_NUMBER_OF_RINGS>
1

>  <JCHEM_PHYSIOLOGICAL_CHARGE>
-1

>  <JCHEM_PKA_STRONGEST_ACIDIC>
5.011076

>  <JCHEM_PKA_STRONGEST_BASIC>
-4.8201203

>  <JCHEM_POLAR_SURFACE_AREA>
46.529999

>  <JCHEM_REFRACTIVITY>
104.1665

>  <JCHEM_ROTATABLE_BOND_COUNT>
6

>  <JCHEM_RULE_OF_FIVE>
0

>  <ALOGPS_SOLUBILITY>
4.78e-04 g/l

>  <JCHEM_TRADITIONAL_IUPAC>
acitretin

>  <JCHEM_VEBER_RULE>
0

>  <DRUGBANK_ID>
DB00459

>  <DRUG_GROUPS>
approved

>  <GENERIC_NAME>
Acitretin

>  <BRANDS>
Neotigason; Soriatane

$$$$
Nabumetone
 OpenBabel02121510022D

 17 18  0  0  0  0  0  0  0  0999 V2000
    8.1340    1.2430    0.0000 O   0  0  0  0  0  0  0  0  0  0  0  0
    2.3640   -1.2520    0.0000 O   0  0  0  0  0  0  0  0  0  0  0  0
    4.5070   -0.0140    0.0000 C   0  0  0  0  0  0  0  0  0  0  0  0
    3.7930   -0.4270    0.0000 C   0  0  0  0  0  0  0  0  0  0  0  0
    5.9360   -0.0140    0.0000 C   0  0  0  0  0  0  0  0  0  0  0  0
    5.9360    0.8110    0.0000 C   0  0  0  0  0  0  0  0  0  0  0  0
    5.2220   -0.4270    0.0000 C   0  0  0  0  0  0  0  0  0  0  0  0
    3.0790   -0.0140    0.0000 C   0  0  0  0  0  0  0  0  0  0  0  0
    4.5070    0.8110    0.0000 C   0  0  0  0  0  0  0  0  0  0  0  0
    5.2220    1.2230    0.0000 C   0  0  0  0  0  0  0  0  0  0  0  0
    6.6730   -0.4550    0.0000 C   0  0  0  0  0  0  0  0  0  0  0  0
    6.6730    1.2520    0.0000 C   0  0  0  0  0  0  0  0  0  0  0  0
    7.4210    0.8280    0.0000 C   0  0  0  0  0  0  0  0  0  0  0  0
    7.4210   -0.0310    0.0000 C   0  0  0  0  0  0  0  0  0  0  0  0
    2.3640   -0.4270    0.0000 C   0  0  0  0  0  0  0  0  0  0  0  0
    1.6500   -0.0140    0.0000 C   0  0  0  0  0  0  0  0  0  0  0  0
    8.8500    0.8330    0.0000 C   0  0  0  0  0  0  0  0  0  0  0  0
  1 13  1  0  0  0  0
  1 17  1  0  0  0  0
  2 15  2  0  0  0  0
  3  4  1  0  0  0  0
  3  7  2  0  0  0  0
  3  9  1  0  0  0  0
  4  8  1  0  0  0  0
  5  6  2  0  0  0  0
  5  7  1  0  0  0  0
  5 11  1  0  0  0  0
  6 10  1  0  0  0  0
  6 12  1  0  0  0  0
  8 15  1  0  0  0  0
  9 10  2  0  0  0  0
 11 14  2  0  0  0  0
 12 13  2  0  0  0  0
 13 14  1  0  0  0  0
 15 16  1  0  0  0  0
M  END
>  <DATABASE_ID>
DB00461

>  <DATABASE_NAME>
drugbank

>  <SMILES>
O(C)c1cc2c(cc(cc2)CCC(=O)C)cc1

>  <INCHI_IDENTIFIER>
InChI=1S/C15H16O2/c1-11(16)3-4-12-5-6-14-10-15(17-2)8-7-13(14)9-12/h5-10H,3-4H2,1-2H3

>  <INCHI_KEY>
InChIKey=BLXXJMDCKKHMKV-UHFFFAOYSA-N

>  <JCHEM_ACCEPTOR_COUNT>
2

>  <JCHEM_AVERAGE_POLARIZABILITY>
26.165627

>  <JCHEM_BIOAVAILABILITY>
1

>  <JCHEM_DONOR_COUNT>
0

>  <JCHEM_EXACT_MASS>
228.11504

>  <JCHEM_FORMAL_CHARGE>
0

>  <JCHEM_FORMULA>
C15H16O2

>  <JCHEM_GHOSE_FILTER>
1

>  <JCHEM_IUPAC>
4-(6-methoxynaphthalen-2-yl)butan-2-one

>  <ALOGPS_LOGP>
3.4100001

>  <JCHEM_LOGP>
3.2169938

>  <ALOGPS_LOGS>
-5.0700002

>  <JCHEM_MASS>
228.2863

>  <JCHEM_MDDR_LIKE_RULE>
0

>  <JCHEM_NUMBER_OF_RINGS>
2

>  <JCHEM_PHYSIOLOGICAL_CHARGE>
0

>  <JCHEM_PKA_STRONGEST_ACIDIC>
19.591539

>  <JCHEM_PKA_STRONGEST_BASIC>
-4.8268728

>  <JCHEM_POLAR_SURFACE_AREA>
26.299999

>  <JCHEM_REFRACTIVITY>
68.431099

>  <JCHEM_ROTATABLE_BOND_COUNT>
4

>  <JCHEM_RULE_OF_FIVE>
1

>  <ALOGPS_SOLUBILITY>
1.93e-03 g/l

>  <JCHEM_TRADITIONAL_IUPAC>
nabumetone

>  <JCHEM_VEBER_RULE>
1

>  <DRUGBANK_ID>
DB00461

>  <DRUG_GROUPS>
approved

>  <GENERIC_NAME>
Nabumetone

>  <SYNONYMS>
Nabumeton; Nabumetona; Nabumétone; Nabumetone; Nabumetonum

>  <BRANDS>
Arthaxan; Balmox; Dolsinal; Listran; Mebutan; Nabuser; Relafen; Relif; Relifen; Relifex

$$$$
Ketorolac
 OpenBabel02121510022D

 19 21  0  0  1  0  0  0  0  0999 V2000
    6.9550   -1.8560    0.0000 O   0  0  0  0  0  0  0  0  0  0  0  0
    5.5970   -2.3000    0.0000 O   0  0  0  0  0  0  0  0  0  0  0  0
    4.6230    1.8280    0.0000 O   0  0  0  0  0  0  0  0  0  0  0  0
    5.1110    0.1750    0.0000 N   0  0  0  0  0  0  0  0  0  0  0  0
    5.8910   -0.9020    0.0000 C   0  0  3  0  0  0  0  0  0  0  0  0
    6.3730   -0.2380    0.0000 C   0  0  0  0  0  0  0  0  0  0  0  0
    5.8910    0.4260    0.0000 C   0  0  0  0  0  0  0  0  0  0  0  0
    5.1110   -0.6500    0.0000 C   0  0  0  0  0  0  0  0  0  0  0  0
    4.3260    0.4300    0.0000 C   0  0  0  0  0  0  0  0  0  0  0  0
    4.3260   -0.9050    0.0000 C   0  0  0  0  0  0  0  0  0  0  0  0
    3.8410   -0.2380    0.0000 C   0  0  0  0  0  0  0  0  0  0  0  0
    6.1480   -1.6860    0.0000 C   0  0  0  0  0  0  0  0  0  0  0  0
    4.0710    1.2140    0.0000 C   0  0  0  0  0  0  0  0  0  0  0  0
    3.2640    1.3860    0.0000 C   0  0  0  0  0  0  0  0  0  0  0  0
    2.7120    0.7730    0.0000 C   0  0  0  0  0  0  0  0  0  0  0  0
    3.0090    2.1710    0.0000 C   0  0  0  0  0  0  0  0  0  0  0  0
    1.9050    0.9440    0.0000 C   0  0  0  0  0  0  0  0  0  0  0  0
    2.2020    2.3420    0.0000 C   0  0  0  0  0  0  0  0  0  0  0  0
    1.6500    1.7290    0.0000 C   0  0  0  0  0  0  0  0  0  0  0  0
  1 12  1  0  0  0  0
  2 12  2  0  0  0  0
  3 13  2  0  0  0  0
  4  7  1  0  0  0  0
  4  8  1  0  0  0  0
  4  9  1  0  0  0  0
  5  6  1  0  0  0  0
  5  8  1  0  0  0  0
  5 12  1  0  0  0  0
  6  7  1  0  0  0  0
  8 10  2  0  0  0  0
  9 11  2  0  0  0  0
  9 13  1  0  0  0  0
 10 11  1  0  0  0  0
 13 14  1  0  0  0  0
 14 15  2  0  0  0  0
 14 16  1  0  0  0  0
 15 17  1  0  0  0  0
 16 18  2  0  0  0  0
 17 19  2  0  0  0  0
 18 19  1  0  0  0  0
M  END
>  <DATABASE_ID>
DB00465

>  <DATABASE_NAME>
drugbank

>  <SMILES>
OC(=O)C1CCn2c1ccc2C(=O)c1ccccc1

>  <INCHI_IDENTIFIER>
InChI=1S/C15H13NO3/c17-14(10-4-2-1-3-5-10)13-7-6-12-11(15(18)19)8-9-16(12)13/h1-7,11H,8-9H2,(H,18,19)

>  <INCHI_KEY>
InChIKey=OZWKMVRBQXNZKK-UHFFFAOYSA-N

>  <JCHEM_ACCEPTOR_COUNT>
3

>  <JCHEM_AVERAGE_POLARIZABILITY>
26.670601

>  <JCHEM_BIOAVAILABILITY>
1

>  <JCHEM_DONOR_COUNT>
1

>  <JCHEM_EXACT_MASS>
255.08954

>  <JCHEM_FORMAL_CHARGE>
0

>  <JCHEM_FORMULA>
C15H13NO3

>  <JCHEM_GHOSE_FILTER>
1

>  <JCHEM_IUPAC>
5-benzoyl-2,3-dihydro-1H-pyrrolizine-1-carboxylic acid

>  <ALOGPS_LOGP>
2.6600001

>  <JCHEM_LOGP>
2.2833629

>  <ALOGPS_LOGS>
-2.7

>  <JCHEM_MASS>
255.2686

>  <JCHEM_MDDR_LIKE_RULE>
0

>  <JCHEM_NUMBER_OF_RINGS>
3

>  <JCHEM_PHYSIOLOGICAL_CHARGE>
-1

>  <JCHEM_PKA_STRONGEST_ACIDIC>
3.8351793

>  <JCHEM_PKA_STRONGEST_BASIC>
-7.7920885

>  <JCHEM_POLAR_SURFACE_AREA>
59.299999

>  <JCHEM_REFRACTIVITY>
70.194504

>  <JCHEM_ROTATABLE_BOND_COUNT>
3

>  <JCHEM_RULE_OF_FIVE>
1

>  <ALOGPS_SOLUBILITY>
5.13e-01 g/l

>  <JCHEM_TRADITIONAL_IUPAC>
ketorolac

>  <JCHEM_VEBER_RULE>
0

>  <DRUGBANK_ID>
DB00465

>  <DRUG_GROUPS>
approved

>  <GENERIC_NAME>
Ketorolac

>  <SYNONYMS>
Ketorolac; Kétorolac; Ketorolaco; Ketorolacum

>  <BRANDS>
Acular; ACUVAIL; Bedoral; Dolten; Dolten SL; Dorixina forte NF; Emodol; Etorac; Ketonic; Ketora; Lixidol; Sprix; Syndol; Taradyl; Tarasyn; Toradol

>  <SALTS>
Ketorolac Tromethamine

$$$$
Enoxacin
 OpenBabel02121510022D

 23 25  0  0  1  0  0  0  0  0999 V2000
    7.1490    1.0620    0.0000 F   0  0  0  0  0  0  0  0  0  0  0  0
    4.2360    1.8680    0.0000 O   0  0  0  0  0  0  0  0  0  0  0  0
    2.0930    0.6300    0.0000 O   0  0  0  0  0  0  0  0  0  0  0  0
    2.8080    1.8680    0.0000 O   0  0  0  0  0  0  0  0  0  0  0  0
    7.1490   -0.6270    0.0000 N   0  0  0  0  0  0  0  0  0  0  0  0
    8.5750   -1.4580    0.0000 N   0  0  0  0  0  0  0  0  0  0  0  0
    4.2360   -0.6080    0.0000 N   0  0  0  0  0  0  0  0  0  0  0  0
    5.6880   -0.6360    0.0000 N   0  0  0  0  0  0  0  0  0  0  0  0
    7.1460   -1.4520    0.0000 C   0  0  0  0  0  0  0  0  0  0  0  0
    7.8650   -0.2180    0.0000 C   0  0  0  0  0  0  0  0  0  0  0  0
    7.8580   -1.8680    0.0000 C   0  0  0  0  0  0  0  0  0  0  0  0
    8.5780   -0.6330    0.0000 C   0  0  0  0  0  0  0  0  0  0  0  0
    6.4360   -0.2120    0.0000 C   0  0  0  0  0  0  0  0  0  0  0  0
    4.9510   -0.1950    0.0000 C   0  0  0  0  0  0  0  0  0  0  0  0
    4.9510    0.6300    0.0000 C   0  0  0  0  0  0  0  0  0  0  0  0
    6.4360    0.6470    0.0000 C   0  0  0  0  0  0  0  0  0  0  0  0
    5.6880    1.0710    0.0000 C   0  0  0  0  0  0  0  0  0  0  0  0
    4.2360   -1.4320    0.0000 C   0  0  0  0  0  0  0  0  0  0  0  0
    4.2360    1.0430    0.0000 C   0  0  0  0  0  0  0  0  0  0  0  0
    3.5220   -0.1950    0.0000 C   0  0  0  0  0  0  0  0  0  0  0  0
    3.5220    0.6300    0.0000 C   0  0  0  0  0  0  0  0  0  0  0  0
    3.5220   -1.8450    0.0000 C   0  0  0  0  0  0  0  0  0  0  0  0
    2.8080    1.0430    0.0000 C   0  0  0  0  0  0  0  0  0  0  0  0
  1 16  1  0  0  0  0
  2 19  2  0  0  0  0
  3 23  1  0  0  0  0
  4 23  2  0  0  0  0
  5  9  1  0  0  0  0
  5 10  1  0  0  0  0
  5 13  1  0  0  0  0
  6 11  1  0  0  0  0
  6 12  1  0  0  0  0
  7 14  1  0  0  0  0
  7 18  1  0  0  0  0
  7 20  1  0  0  0  0
  8 13  1  0  0  0  0
  8 14  2  0  0  0  0
  9 11  1  0  0  0  0
 10 12  1  0  0  0  0
 13 16  2  0  0  0  0
 14 15  1  0  0  0  0
 15 17  2  0  0  0  0
 15 19  1  0  0  0  0
 16 17  1  0  0  0  0
 18 22  1  0  0  0  0
 19 21  1  0  0  0  0
 20 21  2  0  0  0  0
 21 23  1  0  0  0  0
M  END
>  <DATABASE_ID>
DB00467

>  <DATABASE_NAME>
drugbank

>  <SMILES>
Fc1cc2c(nc1N1CCNCC1)N(C=C(C(O)=O)C2=O)CC

>  <INCHI_IDENTIFIER>
InChI=1S/C15H17FN4O3/c1-2-19-8-10(15(22)23)12(21)9-7-11(16)14(18-13(9)19)20-5-3-17-4-6-20/h7-8,17H,2-6H2,1H3,(H,22,23)

>  <INCHI_KEY>
InChIKey=IDYZIJYBMGIQMJ-UHFFFAOYSA-N

>  <JCHEM_ACCEPTOR_COUNT>
7

>  <JCHEM_AVERAGE_POLARIZABILITY>
31.630503

>  <JCHEM_BIOAVAILABILITY>
1

>  <JCHEM_DONOR_COUNT>
2

>  <JCHEM_EXACT_MASS>
320.12848

>  <JCHEM_FORMAL_CHARGE>
0

>  <JCHEM_FORMULA>
C15H17FN4O3

>  <JCHEM_GHOSE_FILTER>
0

>  <JCHEM_IUPAC>
1-ethyl-6-fluoro-4-oxo-7-(piperazin-1-yl)-1,4-dihydro-1,8-naphthyridine-3-carboxylic acid

>  <ALOGPS_LOGP>
-0.97000003

>  <JCHEM_LOGP>
-0.98305196

>  <ALOGPS_LOGS>
-2.47

>  <JCHEM_MASS>
320.31891

>  <JCHEM_MDDR_LIKE_RULE>
0

>  <JCHEM_NUMBER_OF_RINGS>
3

>  <JCHEM_PHYSIOLOGICAL_CHARGE>
0

>  <JCHEM_PKA_STRONGEST_ACIDIC>
5.50139

>  <JCHEM_PKA_STRONGEST_BASIC>
8.5920935

>  <JCHEM_POLAR_SURFACE_AREA>
85.769997

>  <JCHEM_REFRACTIVITY>
83.946899

>  <JCHEM_ROTATABLE_BOND_COUNT>
3

>  <JCHEM_RULE_OF_FIVE>
1

>  <ALOGPS_SOLUBILITY>
1.09e+00 g/l

>  <JCHEM_TRADITIONAL_IUPAC>
enoxacin

>  <JCHEM_VEBER_RULE>
0

>  <DRUGBANK_ID>
DB00467

>  <DRUG_GROUPS>
approved

>  <GENERIC_NAME>
Enoxacin

>  <SYNONYMS>
Enoxacin; Enoxacina; Énoxacine; Enoxacino; Enoxacinum

>  <BRANDS>
Almitil; Bactidan; Comprecin; Enoksetin; Enoxen; Enoxin; Enoxor; Enoxor; Enroxil; Flumark; Gyramid; Penetrex; Vinone

$$$$
Quinine
 OpenBabel02121510022D

 25 28  0  0  1  0  0  0  0  0999 V2000
   -0.7140   -0.8250    0.0000 C   0  0  0  0  0  0  0  0  0  0  0  0
   -1.4290   -0.4120    0.0000 C   0  0  0  0  0  0  0  0  0  0  0  0
   -1.4290    0.4120    0.0000 C   0  0  0  0  0  0  0  0  0  0  0  0
   -0.7140    0.8250    0.0000 C   0  0  0  0  0  0  0  0  0  0  0  0
    0.0000    0.4120    0.0000 C   0  0  0  0  0  0  0  0  0  0  0  0
    0.0000   -0.4120    0.0000 C   0  0  0  0  0  0  0  0  0  0  0  0
    0.7140   -0.8250    0.0000 N   0  0  0  0  0  0  0  0  0  0  0  0
    0.7140    0.8250    0.0000 C   0  0  0  0  0  0  0  0  0  0  0  0
    1.4290    0.4120    0.0000 C   0  0  0  0  0  0  0  0  0  0  0  0
    1.4290   -0.4120    0.0000 C   0  0  0  0  0  0  0  0  0  0  0  0
    1.4290    2.8880    0.0000 C   0  0  0  0  0  0  0  0  0  0  0  0
    2.8580    2.0630    0.0000 C   0  0  0  0  0  0  0  0  0  0  0  0
    2.8580    2.8880    0.0000 C   0  0  2  0  0  0  0  0  0  0  0  0
    2.5560    2.5860    0.0000 C   0  0  0  0  0  0  0  0  0  0  0  0
    3.5720    3.3000    0.0000 C   0  0  0  0  0  0  0  0  0  0  0  0
    2.1430    3.3000    0.0000 C   0  0  2  0  0  0  0  0  0  0  0  0
    2.1430    1.6500    0.0000 N   0  0  2  0  0  0  0  0  0  0  0  0
    2.5560    0.9360    0.0000 C   0  0  0  0  0  0  0  0  0  0  0  0
    4.2870    2.8880    0.0000 C   0  0  0  0  0  0  0  0  0  0  0  0
    1.4290    2.0620    0.0000 C   0  0  2  0  0  0  0  0  0  0  0  0
    0.7140    1.6500    0.0000 C   0  0  2  0  0  0  0  0  0  0  0  0
    0.0000    2.0620    0.0000 O   0  0  0  0  0  0  0  0  0  0  0  0
   -2.1440    0.8250    0.0000 O   0  0  0  0  0  0  0  0  0  0  0  0
    1.4290    1.2380    0.0000 H   0  0  0  0  0  0  0  0  0  0  0  0
   -2.8580    0.4120    0.0000 C   0  0  0  0  0  0  0  0  0  0  0  0
  1  2  1  0  0  0  0
  1  6  2  0  0  0  0
  2  3  2  0  0  0  0
  3  4  1  0  0  0  0
  3 23  1  0  0  0  0
  4  5  2  0  0  0  0
  5  6  1  0  0  0  0
  5  8  1  0  0  0  0
  6  7  1  0  0  0  0
  7 10  2  0  0  0  0
  8  9  2  0  0  0  0
  9 10  1  0  0  0  0
 11 20  1  0  0  0  0
 12 13  1  0  0  0  0
 13 15  1  1  0  0  0
 13 16  1  0  0  0  0
 14 18  1  0  0  0  0
 15 19  2  0  0  0  0
 16 11  1  6  0  0  0
 16 14  1  0  0  0  0
 17 12  1  6  0  0  0
 17 18  1  0  0  0  0
 17 20  1  0  0  0  0
 20 21  1  0  0  0  0
 20 24  1  1  0  0  0
 21  8  1  1  0  0  0
 21 22  1  0  0  0  0
 23 25  1  0  0  0  0
M  END
>  <DATABASE_ID>
DB00468

>  <DATABASE_NAME>
drugbank

>  <SMILES>
O(C)c1cc2c(nccc2[C@@H](O)[C@H]2[N@@]3C[C@@H]([C@H](C2)CC3)C=C)cc1

>  <INCHI_IDENTIFIER>
InChI=1S/C20H24N2O2/c1-3-13-12-22-9-7-14(13)10-19(22)20(23)16-6-8-21-18-5-4-15(24-2)11-17(16)18/h3-6,8,11,13-14,19-20,23H,1,7,9-10,12H2,2H3/t13-,14-,19-,20+/m0/s1

>  <INCHI_KEY>
InChIKey=LOUPRKONTZGTKE-WZBLMQSHSA-N

>  <JCHEM_ACCEPTOR_COUNT>
4

>  <JCHEM_AVERAGE_POLARIZABILITY>
35.957188

>  <JCHEM_BIOAVAILABILITY>
1

>  <JCHEM_DONOR_COUNT>
1

>  <JCHEM_EXACT_MASS>
324.18378

>  <JCHEM_FORMAL_CHARGE>
0

>  <JCHEM_FORMULA>
C20H24N2O2

>  <JCHEM_GHOSE_FILTER>
1

>  <JCHEM_IUPAC>
(R)-[(1S,2S,4S,5R)-5-ethenyl-1-azabicyclo[2.2.2]octan-2-yl](6-methoxyquinolin-4-yl)methanol

>  <ALOGPS_LOGP>
2.8199999

>  <JCHEM_LOGP>
2.513464

>  <ALOGPS_LOGS>
-2.99

>  <JCHEM_MASS>
324.41681

>  <JCHEM_MDDR_LIKE_RULE>
0

>  <JCHEM_NUMBER_OF_RINGS>
4

>  <JCHEM_PHYSIOLOGICAL_CHARGE>
1

>  <JCHEM_PKA_STRONGEST_ACIDIC>
13.892048

>  <JCHEM_PKA_STRONGEST_BASIC>
9.0455475

>  <JCHEM_POLAR_SURFACE_AREA>
45.59

>  <JCHEM_REFRACTIVITY>
94.693604

>  <JCHEM_ROTATABLE_BOND_COUNT>
4

>  <JCHEM_RULE_OF_FIVE>
1

>  <ALOGPS_SOLUBILITY>
3.34e-01 g/l

>  <JCHEM_TRADITIONAL_IUPAC>
(-)-quinine

>  <JCHEM_VEBER_RULE>
0

>  <DRUGBANK_ID>
DB00468

>  <DRUG_GROUPS>
approved

>  <GENERIC_NAME>
Quinine

>  <SYNONYMS>
6'-Methoxycinchonidine; Chinin; Chininum; Quinine

>  <BRANDS>
Cinkona; Jasoquin; QSM; QUALAQUIN; Quinlup; Qutil; Sulquin

>  <SALTS>
Quinine Hydrochloride; Quinine sulfate

$$$$
Tenoxicam
 OpenBabel02121510022D

 22 24  0  0  1  0  0  0  0  0999 V2000
    5.2220    1.7050    0.0000 S   0  0  0  0  0  0  0  0  0  0  0  0
    6.7180    0.2160    0.0000 S   0  0  0  0  0  0  0  0  0  0  0  0
    5.6350    2.4200    0.0000 O   0  0  0  0  0  0  0  0  0  0  0  0
    4.8100    2.4200    0.0000 O   0  0  0  0  0  0  0  0  0  0  0  0
    5.2220   -0.7700    0.0000 O   0  0  0  0  0  0  0  0  0  0  0  0
    3.0790    0.4680    0.0000 O   0  0  0  0  0  0  0  0  0  0  0  0
    4.5080    1.2930    0.0000 N   0  0  0  0  0  0  0  0  0  0  0  0
    3.7940   -0.7700    0.0000 N   0  0  0  0  0  0  0  0  0  0  0  0
    3.0790   -2.0070    0.0000 N   0  0  0  0  0  0  0  0  0  0  0  0
    5.9370    1.2930    0.0000 C   0  0  0  0  0  0  0  0  0  0  0  0
    4.5080    0.4680    0.0000 C   0  0  0  0  0  0  0  0  0  0  0  0
    5.9370    0.4680    0.0000 C   0  0  0  0  0  0  0  0  0  0  0  0
    5.2220    0.0550    0.0000 C   0  0  0  0  0  0  0  0  0  0  0  0
    6.7180    1.5440    0.0000 C   0  0  0  0  0  0  0  0  0  0  0  0
    3.7940    1.7050    0.0000 C   0  0  0  0  0  0  0  0  0  0  0  0
    3.7940    0.0550    0.0000 C   0  0  0  0  0  0  0  0  0  0  0  0
    7.1990    0.8800    0.0000 C   0  0  0  0  0  0  0  0  0  0  0  0
    3.0790   -1.1820    0.0000 C   0  0  0  0  0  0  0  0  0  0  0  0
    2.3640   -0.7700    0.0000 C   0  0  0  0  0  0  0  0  0  0  0  0
    1.6500   -1.1820    0.0000 C   0  0  0  0  0  0  0  0  0  0  0  0
    2.3640   -2.4200    0.0000 C   0  0  0  0  0  0  0  0  0  0  0  0
    1.6500   -2.0070    0.0000 C   0  0  0  0  0  0  0  0  0  0  0  0
  1  3  2  0  0  0  0
  1  4  2  0  0  0  0
  1  7  1  0  0  0  0
  1 10  1  0  0  0  0
  2 12  1  0  0  0  0
  2 17  1  0  0  0  0
  5 13  2  0  0  0  0
  6 16  1  0  0  0  0
  7 11  1  0  0  0  0
  7 15  1  0  0  0  0
  8 16  1  0  0  0  0
  8 18  1  0  0  0  0
  9 18  1  0  0  0  0
  9 21  2  0  0  0  0
 10 12  2  0  0  0  0
 10 14  1  0  0  0  0
 11 13  1  0  0  0  0
 11 16  2  0  0  0  0
 12 13  1  0  0  0  0
 14 17  2  0  0  0  0
 18 19  2  0  0  0  0
 19 20  1  0  0  0  0
 20 22  2  0  0  0  0
 21 22  1  0  0  0  0
M  END
>  <DATABASE_ID>
DB00469

>  <DATABASE_NAME>
drugbank

>  <SMILES>
s1c2c(S(=O)(=O)N(C)\C(=C(/O)\Nc3ncccc3)\C2=O)cc1

>  <INCHI_IDENTIFIER>
InChI=1S/C13H11N3O4S2/c1-16-10(13(18)15-9-4-2-3-6-14-9)11(17)12-8(5-7-21-12)22(16,19)20/h2-7,18H,1H3,(H,14,15)/b13-10-

>  <INCHI_KEY>
InChIKey=WZWYJBNHTWCXIM-RAXLEYEMSA-N

>  <JCHEM_ACCEPTOR_COUNT>
6

>  <JCHEM_AVERAGE_POLARIZABILITY>
31.083696

>  <JCHEM_BIOAVAILABILITY>
1

>  <JCHEM_DONOR_COUNT>
2

>  <JCHEM_EXACT_MASS>
337.0191

>  <JCHEM_FORMAL_CHARGE>
0

>  <JCHEM_FORMULA>
C13H11N3O4S2

>  <JCHEM_GHOSE_FILTER>
1

>  <JCHEM_IUPAC>
(3Z)-3-{hydroxy[(pyridin-2-yl)amino]methylidene}-2-methyl-2H,3H,4H-1$l^{6},5,2-thieno[2,3-e][1$l^{6},2]thiazine-1,1,4-trione

>  <ALOGPS_LOGP>
1.8200001

>  <JCHEM_LOGP>
1.221827

>  <ALOGPS_LOGS>
-3.0899999

>  <JCHEM_MASS>
337.37399

>  <JCHEM_MDDR_LIKE_RULE>
0

>  <JCHEM_NUMBER_OF_RINGS>
3

>  <JCHEM_PHYSIOLOGICAL_CHARGE>
0

>  <JCHEM_PKA>
13.631264

>  <JCHEM_PKA_STRONGEST_ACIDIC>
7.2076488

>  <JCHEM_PKA_STRONGEST_BASIC>
4.7816458

>  <JCHEM_POLAR_SURFACE_AREA>
99.599998

>  <JCHEM_REFRACTIVITY>
93.059097

>  <JCHEM_ROTATABLE_BOND_COUNT>
2

>  <JCHEM_RULE_OF_FIVE>
1

>  <ALOGPS_SOLUBILITY>
2.77e-01 g/l

>  <JCHEM_TRADITIONAL_IUPAC>
(3Z)-3-[hydroxy(pyridin-2-ylamino)methylidene]-2-methyl-1$l^{6},5,2-thieno[2,3-e][1$l^{6},2]thiazine-1,1,4-trione

>  <JCHEM_VEBER_RULE>
0

>  <DRUGBANK_ID>
DB00469

>  <DRUG_GROUPS>
approved

>  <GENERIC_NAME>
Tenoxicam

>  <SYNONYMS>
Tenoxicam; Ténoxicam; Tenoxicamum

>  <BRANDS>
Mobiflex; Octiveran; Oxicam; Oxytel; Palitenox; Tenorix; Tenxil; Tilcotil; Tilflam; Tilko; Tilnoxcam; Tiloxican; Tobitil; Tonox; Toscacalm; Velasor; Vienoks; Voir; Xicotil; Zibelant; Zikaral

$$$$
Dronabinol
 OpenBabel02121510022D

 25 27  0  0  1  0  0  0  0  0999 V2000
    7.6960   -5.8140    0.0000 C   0  0  1  0  0  0  0  0  0  0  0  0
    8.4040   -6.2240    0.0000 C   0  0  0  0  0  0  0  0  0  0  0  0
    6.9800   -6.2240    0.0000 C   0  0  2  0  0  0  0  0  0  0  0  0
    7.6990   -4.9920    0.0000 C   0  0  0  0  0  0  0  0  0  0  0  0
    8.4040   -7.0520    0.0000 C   0  0  0  0  0  0  0  0  0  0  0  0
    9.1200   -5.8140    0.0000 C   0  0  0  0  0  0  0  0  0  0  0  0
    6.9800   -7.0520    0.0000 C   0  0  0  0  0  0  0  0  0  0  0  0
    6.2670   -5.8100    0.0000 C   0  0  0  0  0  0  0  0  0  0  0  0
    6.9830   -4.5790    0.0000 C   0  0  0  0  0  0  0  0  0  0  0  0
    7.6960   -7.4630    0.0000 O   0  0  0  0  0  0  0  0  0  0  0  0
    9.1200   -7.4630    0.0000 C   0  0  0  0  0  0  0  0  0  0  0  0
    9.8290   -6.2240    0.0000 C   0  0  0  0  0  0  0  0  0  0  0  0
    9.1200   -4.9890    0.0000 O   0  0  0  0  0  0  0  0  0  0  0  0
    6.2670   -4.9890    0.0000 C   0  0  0  0  0  0  0  0  0  0  0  0
    6.9870   -3.7580    0.0000 C   0  0  0  0  0  0  0  0  0  0  0  0
    9.8290   -7.0520    0.0000 C   0  0  0  0  0  0  0  0  0  0  0  0
   10.5410   -7.4630    0.0000 C   0  0  0  0  0  0  0  0  0  0  0  0
   11.2570   -7.0490    0.0000 C   0  0  0  0  0  0  0  0  0  0  0  0
   11.9660   -7.4590    0.0000 C   0  0  0  0  0  0  0  0  0  0  0  0
   12.6810   -7.0490    0.0000 C   0  0  0  0  0  0  0  0  0  0  0  0
   13.3900   -7.4590    0.0000 C   0  0  0  0  0  0  0  0  0  0  0  0
    8.3660   -5.3920    0.0000 H   0  0  0  0  0  0  0  0  0  0  0  0
    6.1590   -6.7680    0.0000 H   0  0  0  0  0  0  0  0  0  0  0  0
    6.9800   -7.8770    0.0000 C   0  0  0  0  0  0  0  0  0  0  0  0
    6.2650   -7.4650    0.0000 C   0  0  0  0  0  0  0  0  0  0  0  0
  1  2  1  0  0  0  0
  1  3  1  0  0  0  0
  1  4  1  0  0  0  0
  1 22  1  6  0  0  0
  2  5  1  0  0  0  0
  2  6  2  0  0  0  0
  3  7  1  0  0  0  0
  3  8  1  0  0  0  0
  3 23  1  1  0  0  0
  4  9  2  0  0  0  0
  5 10  1  0  0  0  0
  5 11  2  0  0  0  0
  6 12  1  0  0  0  0
  6 13  1  0  0  0  0
  7 10  1  0  0  0  0
  7 24  1  0  0  0  0
  7 25  1  0  0  0  0
  8 14  1  0  0  0  0
  9 14  1  0  0  0  0
  9 15  1  0  0  0  0
 11 16  1  0  0  0  0
 12 16  2  0  0  0  0
 16 17  1  0  0  0  0
 17 18  1  0  0  0  0
 18 19  1  0  0  0  0
 19 20  1  0  0  0  0
 20 21  1  0  0  0  0
M  END
>  <DATABASE_ID>
DB00470

>  <DATABASE_NAME>
drugbank

>  <SMILES>
O1c2c([C@H]3[C@@H](CCC(=C3)C)C1(C)C)c(O)cc(c2)CCCCC

>  <INCHI_IDENTIFIER>
InChI=1S/C21H30O2/c1-5-6-7-8-15-12-18(22)20-16-11-14(2)9-10-17(16)21(3,4)23-19(20)13-15/h11-13,16-17,22H,5-10H2,1-4H3/t16-,17-/m1/s1

>  <INCHI_KEY>
InChIKey=CYQFCXCEBYINGO-IAGOWNOFSA-N

>  <JCHEM_ACCEPTOR_COUNT>
2

>  <JCHEM_AVERAGE_POLARIZABILITY>
38.95694

>  <JCHEM_BIOAVAILABILITY>
1

>  <JCHEM_DONOR_COUNT>
1

>  <JCHEM_EXACT_MASS>
314.22458

>  <JCHEM_FORMAL_CHARGE>
0

>  <JCHEM_FORMULA>
C21H30O2

>  <JCHEM_GHOSE_FILTER>
0

>  <JCHEM_IUPAC>
(6aR,10aR)-6,6,9-trimethyl-3-pentyl-6H,6aH,7H,8H,10aH-benzo[c]isochromen-1-ol

>  <ALOGPS_LOGP>
7.29

>  <JCHEM_LOGP>
5.9441571

>  <ALOGPS_LOGS>
-5.0799999

>  <JCHEM_MASS>
314.4617

>  <JCHEM_MDDR_LIKE_RULE>
0

>  <JCHEM_NUMBER_OF_RINGS>
3

>  <JCHEM_PHYSIOLOGICAL_CHARGE>
0

>  <JCHEM_PKA_STRONGEST_ACIDIC>
9.3424292

>  <JCHEM_PKA_STRONGEST_BASIC>
-4.8933043

>  <JCHEM_POLAR_SURFACE_AREA>
29.459999

>  <JCHEM_REFRACTIVITY>
96.733498

>  <JCHEM_ROTATABLE_BOND_COUNT>
4

>  <JCHEM_RULE_OF_FIVE>
0

>  <ALOGPS_SOLUBILITY>
2.63e-03 g/l

>  <JCHEM_TRADITIONAL_IUPAC>
THC

>  <JCHEM_VEBER_RULE>
1

>  <DRUGBANK_ID>
DB00470

>  <DRUG_GROUPS>
approved; illicit

>  <GENERIC_NAME>
Dronabinol

>  <SYNONYMS>
1-trans-delta-9-Tetrahydrocannabinol; delta-9-tetrahydrocannabinol; delta-9-THC; Dronabinolum; Tetrahydrocannabinol; Δ9-tetrahydrocannabinol

>  <BRANDS>
Marinol

$$$$
Montelukast
 OpenBabel02121510022D

 41 45  0  0  1  0  0  0  0  0999 V2000
   14.2940   -1.4640    0.0000 Cl  0  0  0  0  0  0  0  0  0  0  0  0
    5.6660   -1.4440    0.0000 S   0  0  0  0  0  0  0  0  0  0  0  0
    2.0930   -1.0310    0.0000 O   0  0  0  0  0  0  0  0  0  0  0  0
    2.8080   -2.2690    0.0000 O   0  0  0  0  0  0  0  0  0  0  0  0
    3.5220    0.6190    0.0000 O   0  0  0  0  0  0  0  0  0  0  0  0
   11.3810   -1.4440    0.0000 N   0  0  0  0  0  0  0  0  0  0  0  0
    4.2360   -1.4440    0.0000 C   0  0  0  0  0  0  0  0  0  0  0  0
    3.8240   -2.1580    0.0000 C   0  0  0  0  0  0  0  0  0  0  0  0
    4.6490   -2.1580    0.0000 C   0  0  0  0  0  0  0  0  0  0  0  0
    4.9510   -1.0310    0.0000 C   0  0  0  0  0  0  0  0  0  0  0  0
    3.5220   -1.0310    0.0000 C   0  0  0  0  0  0  0  0  0  0  0  0
    2.8080   -1.4440    0.0000 C   0  0  0  0  0  0  0  0  0  0  0  0
    6.3800   -1.0310    0.0000 C   0  0  2  0  0  0  0  0  0  0  0  0
    6.3800   -0.2060    0.0000 C   0  0  0  0  0  0  0  0  0  0  0  0
    7.0940   -1.4440    0.0000 C   0  0  0  0  0  0  0  0  0  0  0  0
    5.6660    0.2060    0.0000 C   0  0  0  0  0  0  0  0  0  0  0  0
    7.8090   -1.0310    0.0000 C   0  0  0  0  0  0  0  0  0  0  0  0
    7.0940   -2.2690    0.0000 C   0  0  0  0  0  0  0  0  0  0  0  0
    5.6660    1.0310    0.0000 C   0  0  0  0  0  0  0  0  0  0  0  0
    4.9510    1.4440    0.0000 C   0  0  0  0  0  0  0  0  0  0  0  0
    8.5230   -1.4440    0.0000 C   0  0  0  0  0  0  0  0  0  0  0  0
    7.8090   -2.6810    0.0000 C   0  0  0  0  0  0  0  0  0  0  0  0
    4.2360    1.0310    0.0000 C   0  0  0  0  0  0  0  0  0  0  0  0
    6.3800    1.4440    0.0000 C   0  0  0  0  0  0  0  0  0  0  0  0
    8.5230   -2.2690    0.0000 C   0  0  0  0  0  0  0  0  0  0  0  0
    4.9510    2.2690    0.0000 C   0  0  0  0  0  0  0  0  0  0  0  0
    6.3800    2.2690    0.0000 C   0  0  0  0  0  0  0  0  0  0  0  0
    9.2380   -1.0310    0.0000 C   0  0  0  0  0  0  0  0  0  0  0  0
    3.8240    1.7460    0.0000 C   0  0  0  0  0  0  0  0  0  0  0  0
    4.6490    0.3170    0.0000 C   0  0  0  0  0  0  0  0  0  0  0  0
    5.6660    2.6810    0.0000 C   0  0  0  0  0  0  0  0  0  0  0  0
    9.9520   -1.4440    0.0000 C   0  0  0  0  0  0  0  0  0  0  0  0
   10.6670   -1.0310    0.0000 C   0  0  0  0  0  0  0  0  0  0  0  0
   10.6670   -0.2060    0.0000 C   0  0  0  0  0  0  0  0  0  0  0  0
   12.0960   -1.0310    0.0000 C   0  0  0  0  0  0  0  0  0  0  0  0
   11.3810    0.2060    0.0000 C   0  0  0  0  0  0  0  0  0  0  0  0
   12.0960   -0.2060    0.0000 C   0  0  0  0  0  0  0  0  0  0  0  0
   12.8330   -1.4720    0.0000 C   0  0  0  0  0  0  0  0  0  0  0  0
   12.8330    0.2350    0.0000 C   0  0  0  0  0  0  0  0  0  0  0  0
   13.5810   -1.0480    0.0000 C   0  0  0  0  0  0  0  0  0  0  0  0
   13.5810   -0.1890    0.0000 C   0  0  0  0  0  0  0  0  0  0  0  0
  1 40  1  0  0  0  0
  2 10  1  0  0  0  0
  3 12  1  0  0  0  0
  4 12  2  0  0  0  0
  5 23  1  0  0  0  0
  6 33  1  0  0  0  0
  6 35  2  0  0  0  0
  7  8  1  0  0  0  0
  7  9  1  0  0  0  0
  7 10  1  0  0  0  0
  7 11  1  0  0  0  0
  8  9  1  0  0  0  0
 11 12  1  0  0  0  0
 13  2  1  6  0  0  0
 13 14  1  0  0  0  0
 13 15  1  0  0  0  0
 14 16  1  0  0  0  0
 15 17  1  0  0  0  0
 15 18  2  0  0  0  0
 16 19  1  0  0  0  0
 17 21  2  0  0  0  0
 18 22  1  0  0  0  0
 19 20  1  0  0  0  0
 19 24  2  0  0  0  0
 20 23  1  0  0  0  0
 20 26  2  0  0  0  0
 21 25  1  0  0  0  0
 21 28  1  0  0  0  0
 22 25  2  0  0  0  0
 23 29  1  0  0  0  0
 23 30  1  0  0  0  0
 24 27  1  0  0  0  0
 26 31  1  0  0  0  0
 27 31  2  0  0  0  0
 28 32  2  0  0  0  0
 32 33  1  0  0  0  0
 33 34  2  0  0  0  0
 34 36  1  0  0  0  0
 35 37  1  0  0  0  0
 35 38  1  0  0  0  0
 36 37  2  0  0  0  0
 37 39  1  0  0  0  0
 38 40  2  0  0  0  0
 39 41  2  0  0  0  0
 40 41  1  0  0  0  0
M  END
>  <DATABASE_ID>
DB00471

>  <DATABASE_NAME>
drugbank

>  <SMILES>
Clc1cc2nc(ccc2cc1)\C=C\c1cc(ccc1)[C@H](SCC1(CC1)CC(O)=O)CCc1ccccc1C(O)(C)C

>  <INCHI_IDENTIFIER>
InChI=1S/C35H36ClNO3S/c1-34(2,40)30-9-4-3-7-25(30)13-17-32(41-23-35(18-19-35)22-33(38)39)27-8-5-6-24(20-27)10-15-29-16-12-26-11-14-28(36)21-31(26)37-29/h3-12,14-16,20-21,32,40H,13,17-19,22-23H2,1-2H3,(H,38,39)/b15-10+/t32-/m1/s1

>  <INCHI_KEY>
InChIKey=UCHDWCPVSPXUMX-TZIWLTJVSA-N

>  <JCHEM_ACCEPTOR_COUNT>
4

>  <JCHEM_AVERAGE_POLARIZABILITY>
66.364502

>  <JCHEM_BIOAVAILABILITY>
0

>  <JCHEM_DONOR_COUNT>
2

>  <JCHEM_EXACT_MASS>
585.21045

>  <JCHEM_FORMAL_CHARGE>
0

>  <JCHEM_FORMULA>
C35H36ClNO3S

>  <JCHEM_GHOSE_FILTER>
0

>  <JCHEM_IUPAC>
2-[1-({[(1R)-1-{3-[(E)-2-(7-chloroquinolin-2-yl)ethenyl]phenyl}-3-[2-(2-hydroxypropan-2-yl)phenyl]propyl]sulfanyl}methyl)cyclopropyl]acetic acid

>  <ALOGPS_LOGP>
7.25

>  <JCHEM_LOGP>
8.4935331

>  <ALOGPS_LOGS>
-7.8499999

>  <JCHEM_MASS>
586.18298

>  <JCHEM_MDDR_LIKE_RULE>
1

>  <JCHEM_NUMBER_OF_RINGS>
5

>  <JCHEM_PHYSIOLOGICAL_CHARGE>
-1

>  <JCHEM_PKA>
14.603668

>  <JCHEM_PKA_STRONGEST_ACIDIC>
4.400609

>  <JCHEM_PKA_STRONGEST_BASIC>
3.1215484

>  <JCHEM_POLAR_SURFACE_AREA>
70.419998

>  <JCHEM_REFRACTIVITY>
169.50391

>  <JCHEM_ROTATABLE_BOND_COUNT>
12

>  <JCHEM_RULE_OF_FIVE>
0

>  <ALOGPS_SOLUBILITY>
8.20e-06 g/l

>  <JCHEM_TRADITIONAL_IUPAC>
montelukast

>  <JCHEM_VEBER_RULE>
0

>  <DRUGBANK_ID>
DB00471

>  <DRUG_GROUPS>
approved

>  <GENERIC_NAME>
Montelukast

>  <SYNONYMS>
Montelukast; Montélukast; Montelukastum

>  <BRANDS>
Lukotas; Molly; Monocast; Monteflo; Montelo-10; Montene; Respaire; Singulair; Surfair; Telumantes; Ventek; Ventilar; Xalar; Zespira

>  <SALTS>
Montelukast sodium

$$$$
Fluoxetine
 OpenBabel02121510022D

 22 23  0  0  1  0  0  0  0  0999 V2000
    4.3970    2.6810    0.0000 F   0  0  0  0  0  0  0  0  0  0  0  0
    6.0480    2.6810    0.0000 F   0  0  0  0  0  0  0  0  0  0  0  0
    5.2220    3.5060    0.0000 F   0  0  0  0  0  0  0  0  0  0  0  0
    5.2220   -0.6190    0.0000 O   0  0  0  0  0  0  0  0  0  0  0  0
    2.3640   -0.6190    0.0000 N   0  0  0  0  0  0  0  0  0  0  0  0
    4.5080   -1.0310    0.0000 C   0  0  3  0  0  0  0  0  0  0  0  0
    3.7940   -0.6190    0.0000 C   0  0  0  0  0  0  0  0  0  0  0  0
    4.5080   -1.8560    0.0000 C   0  0  0  0  0  0  0  0  0  0  0  0
    3.0790   -1.0310    0.0000 C   0  0  0  0  0  0  0  0  0  0  0  0
    5.2220   -2.2690    0.0000 C   0  0  0  0  0  0  0  0  0  0  0  0
    3.7940   -2.2690    0.0000 C   0  0  0  0  0  0  0  0  0  0  0  0
    5.2220    0.2060    0.0000 C   0  0  0  0  0  0  0  0  0  0  0  0
    5.2220   -3.0940    0.0000 C   0  0  0  0  0  0  0  0  0  0  0  0
    3.7940   -3.0940    0.0000 C   0  0  0  0  0  0  0  0  0  0  0  0
    5.9370    0.6190    0.0000 C   0  0  0  0  0  0  0  0  0  0  0  0
    4.5080    0.6190    0.0000 C   0  0  0  0  0  0  0  0  0  0  0  0
    5.2220    1.8560    0.0000 C   0  0  0  0  0  0  0  0  0  0  0  0
    4.5080   -3.5060    0.0000 C   0  0  0  0  0  0  0  0  0  0  0  0
    1.6500   -1.0310    0.0000 C   0  0  0  0  0  0  0  0  0  0  0  0
    5.9370    1.4440    0.0000 C   0  0  0  0  0  0  0  0  0  0  0  0
    4.5080    1.4440    0.0000 C   0  0  0  0  0  0  0  0  0  0  0  0
    5.2220    2.6810    0.0000 C   0  0  0  0  0  0  0  0  0  0  0  0
  1 22  1  0  0  0  0
  2 22  1  0  0  0  0
  3 22  1  0  0  0  0
  4  6  1  0  0  0  0
  4 12  1  0  0  0  0
  5  9  1  0  0  0  0
  5 19  1  0  0  0  0
  6  7  1  0  0  0  0
  6  8  1  0  0  0  0
  7  9  1  0  0  0  0
  8 10  2  0  0  0  0
  8 11  1  0  0  0  0
 10 13  1  0  0  0  0
 11 14  2  0  0  0  0
 12 15  2  0  0  0  0
 12 16  1  0  0  0  0
 13 18  2  0  0  0  0
 14 18  1  0  0  0  0
 15 20  1  0  0  0  0
 16 21  2  0  0  0  0
 17 20  2  0  0  0  0
 17 21  1  0  0  0  0
 17 22  1  0  0  0  0
M  END
>  <DATABASE_ID>
DB00472

>  <DATABASE_NAME>
drugbank

>  <SMILES>
FC(F)(F)c1ccc(OC(CCNC)c2ccccc2)cc1

>  <INCHI_IDENTIFIER>
InChI=1S/C17H18F3NO/c1-21-12-11-16(13-5-3-2-4-6-13)22-15-9-7-14(8-10-15)17(18,19)20/h2-10,16,21H,11-12H2,1H3

>  <INCHI_KEY>
InChIKey=RTHCYVBBDHJXIQ-UHFFFAOYSA-N

>  <JCHEM_ACCEPTOR_COUNT>
2

>  <JCHEM_AVERAGE_POLARIZABILITY>
30.326618

>  <JCHEM_BIOAVAILABILITY>
1

>  <JCHEM_DONOR_COUNT>
1

>  <JCHEM_EXACT_MASS>
309.13406

>  <JCHEM_FORMAL_CHARGE>
0

>  <JCHEM_FORMULA>
C17H18F3NO

>  <JCHEM_GHOSE_FILTER>
1

>  <JCHEM_IUPAC>
methyl({3-phenyl-3-[4-(trifluoromethyl)phenoxy]propyl})amine

>  <ALOGPS_LOGP>
4.0900002

>  <JCHEM_LOGP>
4.1732197

>  <ALOGPS_LOGS>
-5.2600002

>  <JCHEM_MASS>
309.32611

>  <JCHEM_MDDR_LIKE_RULE>
0

>  <JCHEM_NUMBER_OF_RINGS>
2

>  <JCHEM_PHYSIOLOGICAL_CHARGE>
1

>  <JCHEM_PKA_STRONGEST_BASIC>
9.8031397

>  <JCHEM_POLAR_SURFACE_AREA>
21.26

>  <JCHEM_REFRACTIVITY>
80.3675

>  <JCHEM_ROTATABLE_BOND_COUNT>
7

>  <JCHEM_RULE_OF_FIVE>
1

>  <ALOGPS_SOLUBILITY>
1.70e-03 g/l

>  <JCHEM_TRADITIONAL_IUPAC>
prozac

>  <JCHEM_VEBER_RULE>
1

>  <DRUGBANK_ID>
DB00472

>  <DRUG_GROUPS>
approved

>  <GENERIC_NAME>
Fluoxetine

>  <SYNONYMS>
Fluoxetin; Fluoxetina; Fluoxétine; Fluoxetinum

>  <BRANDS>
Adofen; Animex-On; Fluoxeren; Fontex; Ladose; Prozac; Sarafem

>  <SALTS>
Fluoxetine Hydrochloride

$$$$
Chlordiazepoxide
 OpenBabel02121510022D

 21 23  0  0  0  0  0  0  0  0999 V2000
   -0.7140    0.4120    0.0000 C   0  0  0  0  0  0  0  0  0  0  0  0
   -0.7140   -0.4120    0.0000 C   0  0  0  0  0  0  0  0  0  0  0  0
    0.7140   -0.4120    0.0000 C   0  0  0  0  0  0  0  0  0  0  0  0
    0.7140    0.4120    0.0000 C   0  0  0  0  0  0  0  0  0  0  0  0
    0.0000   -0.8250    0.0000 C   0  0  0  0  0  0  0  0  0  0  0  0
    0.0000    0.8250    0.0000 C   0  0  0  0  0  0  0  0  0  0  0  0
    1.3600   -0.9270    0.0000 C   0  0  0  0  0  0  0  0  0  0  0  0
    1.1760   -1.7310    0.0000 C   0  0  0  0  0  0  0  0  0  0  0  0
    2.1640   -0.7430    0.0000 N   0  3  0  0  0  0  0  0  0  0  0  0
    1.3600    0.9270    0.0000 N   0  0  0  0  0  0  0  0  0  0  0  0
    0.3880   -1.9740    0.0000 C   0  0  0  0  0  0  0  0  0  0  0  0
    1.7810   -2.2920    0.0000 C   0  0  0  0  0  0  0  0  0  0  0  0
    2.5220    0.0000    0.0000 C   0  0  0  0  0  0  0  0  0  0  0  0
    2.6780   -1.3880    0.0000 O   0  5  0  0  0  0  0  0  0  0  0  0
    2.1640    0.7430    0.0000 C   0  0  0  0  0  0  0  0  0  0  0  0
   -1.4290   -0.8250    0.0000 Cl  0  0  0  0  0  0  0  0  0  0  0  0
    0.2040   -2.7790    0.0000 C   0  0  0  0  0  0  0  0  0  0  0  0
    1.5970   -3.0970    0.0000 C   0  0  0  0  0  0  0  0  0  0  0  0
    0.8090   -3.3400    0.0000 C   0  0  0  0  0  0  0  0  0  0  0  0
    2.3770    2.1560    0.0000 C   0  0  0  0  0  0  0  0  0  0  0  0
    2.6780    1.3880    0.0000 N   0  0  0  0  0  0  0  0  0  0  0  0
  1  2  1  0  0  0  0
  1  6  2  0  0  0  0
  2  5  2  0  0  0  0
  2 16  1  0  0  0  0
  3  4  2  0  0  0  0
  3  5  1  0  0  0  0
  3  7  1  0  0  0  0
  4  6  1  0  0  0  0
  4 10  1  0  0  0  0
  7  8  1  0  0  0  0
  7  9  2  0  0  0  0
  8 11  2  0  0  0  0
  8 12  1  0  0  0  0
  9 13  1  0  0  0  0
  9 14  1  0  0  0  0
 10 15  2  0  0  0  0
 11 17  1  0  0  0  0
 12 18  2  0  0  0  0
 13 15  1  0  0  0  0
 15 21  1  0  0  0  0
 17 19  2  0  0  0  0
 18 19  1  0  0  0  0
 20 21  1  0  0  0  0
M  CHG  2   9   1  14  -1
M  END
>  <DATABASE_ID>
DB00475

>  <DATABASE_NAME>
drugbank

>  <SMILES>
Clc1cc2c(N=C(NC)C[N+]([O-])=C2c2ccccc2)cc1

>  <INCHI_IDENTIFIER>
InChI=1S/C16H14ClN3O/c1-18-15-10-20(21)16(11-5-3-2-4-6-11)13-9-12(17)7-8-14(13)19-15/h2-9H,10H2,1H3,(H,18,19)

>  <INCHI_KEY>
InChIKey=ANTSCNMPPGJYLG-UHFFFAOYSA-N

>  <JCHEM_ACCEPTOR_COUNT>
3

>  <JCHEM_AVERAGE_POLARIZABILITY>
30.967106

>  <JCHEM_BIOAVAILABILITY>
1

>  <JCHEM_DONOR_COUNT>
1

>  <JCHEM_EXACT_MASS>
299.08255

>  <JCHEM_FORMAL_CHARGE>
0

>  <JCHEM_FORMULA>
C16H14ClN3O

>  <JCHEM_GHOSE_FILTER>
1

>  <JCHEM_IUPAC>
7-chloro-2-(methylamino)-5-phenyl-3H-1,4$l^{5}-benzodiazepin-4-one

>  <ALOGPS_LOGP>
2.01

>  <JCHEM_LOGP>
3.0505509

>  <ALOGPS_LOGS>
-4.1799998

>  <JCHEM_MASS>
299.755

>  <JCHEM_MDDR_LIKE_RULE>
0

>  <JCHEM_NUMBER_OF_RINGS>
3

>  <JCHEM_PHYSIOLOGICAL_CHARGE>
0

>  <JCHEM_PKA_STRONGEST_ACIDIC>
18.524357

>  <JCHEM_PKA_STRONGEST_BASIC>
6.4253764

>  <JCHEM_POLAR_SURFACE_AREA>
53.139999

>  <JCHEM_REFRACTIVITY>
87.340302

>  <JCHEM_ROTATABLE_BOND_COUNT>
1

>  <JCHEM_RULE_OF_FIVE>
1

>  <ALOGPS_SOLUBILITY>
1.99e-02 g/l

>  <JCHEM_TRADITIONAL_IUPAC>
multum

>  <JCHEM_VEBER_RULE>
0

>  <DRUGBANK_ID>
DB00475

>  <DRUG_GROUPS>
approved; illicit

>  <GENERIC_NAME>
Chlordiazepoxide

>  <SYNONYMS>
Chloradiazepoxide; Chlordiazepoxidum; Clopoxide; Methaminodiazepoxide

>  <BRANDS>
Angirex; Elenium; Klopoxid; Librium; Napoton; Radepur; Risolid; Silibrin; Sonimen

>  <SALTS>
Chlordiazepoxide Hydrochloride

$$$$
Duloxetine
 OpenBabel02121510022D

 21 23  0  0  1  0  0  0  0  0999 V2000
    5.1750   -1.7210    0.0000 S   0  0  0  0  0  0  0  0  0  0  0  0
    5.2220    0.0020    0.0000 O   0  0  0  0  0  0  0  0  0  0  0  0
    2.3640    0.0020    0.0000 N   0  0  0  0  0  0  0  0  0  0  0  0
    4.5080   -0.4110    0.0000 C   0  0  1  0  0  0  0  0  0  0  0  0
    3.7930    0.0020    0.0000 C   0  0  0  0  0  0  0  0  0  0  0  0
    3.0790   -0.4110    0.0000 C   0  0  0  0  0  0  0  0  0  0  0  0
    4.5080   -1.2360    0.0000 C   0  0  0  0  0  0  0  0  0  0  0  0
    5.2220    0.8270    0.0000 C   0  0  0  0  0  0  0  0  0  0  0  0
    5.9370    1.2390    0.0000 C   0  0  0  0  0  0  0  0  0  0  0  0
    5.9370    2.0640    0.0000 C   0  0  0  0  0  0  0  0  0  0  0  0
    3.8400   -1.7210    0.0000 C   0  0  0  0  0  0  0  0  0  0  0  0
    4.5080    1.2390    0.0000 C   0  0  0  0  0  0  0  0  0  0  0  0
    6.6740    0.7980    0.0000 C   0  0  0  0  0  0  0  0  0  0  0  0
    5.2220    2.4770    0.0000 C   0  0  0  0  0  0  0  0  0  0  0  0
    4.5080    2.0640    0.0000 C   0  0  0  0  0  0  0  0  0  0  0  0
    6.6740    2.5050    0.0000 C   0  0  0  0  0  0  0  0  0  0  0  0
    4.0950   -2.5050    0.0000 C   0  0  0  0  0  0  0  0  0  0  0  0
    4.9200   -2.5050    0.0000 C   0  0  0  0  0  0  0  0  0  0  0  0
    1.6500   -0.4110    0.0000 C   0  0  0  0  0  0  0  0  0  0  0  0
    7.4220    1.2220    0.0000 C   0  0  0  0  0  0  0  0  0  0  0  0
    7.4220    2.0810    0.0000 C   0  0  0  0  0  0  0  0  0  0  0  0
  1  7  1  0  0  0  0
  1 18  1  0  0  0  0
  2  8  1  0  0  0  0
  3  6  1  0  0  0  0
  3 19  1  0  0  0  0
  4  2  1  6  0  0  0
  4  5  1  0  0  0  0
  4  7  1  0  0  0  0
  5  6  1  0  0  0  0
  7 11  2  0  0  0  0
  8  9  1  0  0  0  0
  8 12  2  0  0  0  0
  9 10  1  0  0  0  0
  9 13  2  0  0  0  0
 10 14  1  0  0  0  0
 10 16  2  0  0  0  0
 11 17  1  0  0  0  0
 12 15  1  0  0  0  0
 13 20  1  0  0  0  0
 14 15  2  0  0  0  0
 16 21  1  0  0  0  0
 17 18  2  0  0  0  0
 20 21  2  0  0  0  0
M  END
>  <DATABASE_ID>
DB00476

>  <DATABASE_NAME>
drugbank

>  <SMILES>
s1cccc1[C@@H](Oc1c2c(ccc1)cccc2)CCNC

>  <INCHI_IDENTIFIER>
InChI=1S/C18H19NOS/c1-19-12-11-17(18-10-5-13-21-18)20-16-9-4-7-14-6-2-3-8-15(14)16/h2-10,13,17,19H,11-12H2,1H3/t17-/m0/s1

>  <INCHI_KEY>
InChIKey=ZEUITGRIYCTCEM-KRWDZBQOSA-N

>  <JCHEM_ACCEPTOR_COUNT>
2

>  <JCHEM_AVERAGE_POLARIZABILITY>
33.152786

>  <JCHEM_BIOAVAILABILITY>
1

>  <JCHEM_DONOR_COUNT>
1

>  <JCHEM_EXACT_MASS>
297.11874

>  <JCHEM_FORMAL_CHARGE>
0

>  <JCHEM_FORMULA>
C18H19NOS

>  <JCHEM_GHOSE_FILTER>
1

>  <JCHEM_IUPAC>
methyl[(3S)-3-(naphthalen-1-yloxy)-3-(thiophen-2-yl)propyl]amine

>  <ALOGPS_LOGP>
4.7199998

>  <JCHEM_LOGP>
4.1977291

>  <ALOGPS_LOGS>
-5

>  <JCHEM_MASS>
297.41501

>  <JCHEM_MDDR_LIKE_RULE>
1

>  <JCHEM_NUMBER_OF_RINGS>
3

>  <JCHEM_PHYSIOLOGICAL_CHARGE>
1

>  <JCHEM_PKA_STRONGEST_BASIC>
9.7025766

>  <JCHEM_POLAR_SURFACE_AREA>
21.26

>  <JCHEM_REFRACTIVITY>
87.733902

>  <JCHEM_ROTATABLE_BOND_COUNT>
6

>  <JCHEM_RULE_OF_FIVE>
1

>  <ALOGPS_SOLUBILITY>
2.96e-03 g/l

>  <JCHEM_TRADITIONAL_IUPAC>
duloxetine

>  <JCHEM_VEBER_RULE>
1

>  <DRUGBANK_ID>
DB00476

>  <DRUG_GROUPS>
approved

>  <GENERIC_NAME>
Duloxetine

>  <BRANDS>
Ariclaim; Cymbalta; Dulane; Duzela; Xeristar; Yentreve

>  <SALTS>
Duloxetine Hydrochloride

$$$$
Chlorpromazine
 OpenBabel02121510022D

 21 23  0  0  1  0  0  0  0  0999 V2000
    6.4920   -0.7590    0.0000 Cl  0  0  0  0  0  0  0  0  0  0  0  0
    3.6960   -2.3620    0.0000 S   0  0  0  0  0  0  0  0  0  0  0  0
    3.6960   -0.7780    0.0000 N   0  0  0  0  0  0  0  0  0  0  0  0
    2.3240    1.5980    0.0000 N   0  0  0  0  0  0  0  0  0  0  0  0
    3.6960    0.0140    0.0000 C   0  0  0  0  0  0  0  0  0  0  0  0
    3.0100    0.4100    0.0000 C   0  0  0  0  0  0  0  0  0  0  0  0
    3.0100    1.2020    0.0000 C   0  0  0  0  0  0  0  0  0  0  0  0
    4.3820   -1.1740    0.0000 C   0  0  0  0  0  0  0  0  0  0  0  0
    3.0100   -1.1740    0.0000 C   0  0  0  0  0  0  0  0  0  0  0  0
    4.3820   -1.9660    0.0000 C   0  0  0  0  0  0  0  0  0  0  0  0
    3.0100   -1.9660    0.0000 C   0  0  0  0  0  0  0  0  0  0  0  0
    5.0900   -0.7510    0.0000 C   0  0  0  0  0  0  0  0  0  0  0  0
    2.3020   -0.7510    0.0000 C   0  0  0  0  0  0  0  0  0  0  0  0
    5.0900   -2.3900    0.0000 C   0  0  0  0  0  0  0  0  0  0  0  0
    2.3020   -2.3900    0.0000 C   0  0  0  0  0  0  0  0  0  0  0  0
    1.6380    1.2020    0.0000 C   0  0  0  0  0  0  0  0  0  0  0  0
    2.3240    2.3900    0.0000 C   0  0  0  0  0  0  0  0  0  0  0  0
    5.8080   -1.1580    0.0000 C   0  0  0  0  0  0  0  0  0  0  0  0
    1.5840   -1.1580    0.0000 C   0  0  0  0  0  0  0  0  0  0  0  0
    5.8080   -1.9830    0.0000 C   0  0  0  0  0  0  0  0  0  0  0  0
    1.5840   -1.9830    0.0000 C   0  0  0  0  0  0  0  0  0  0  0  0
  1 18  1  0  0  0  0
  2 10  1  0  0  0  0
  2 11  1  0  0  0  0
  3  5  1  0  0  0  0
  3  8  1  0  0  0  0
  3  9  1  0  0  0  0
  4  7  1  0  0  0  0
  4 16  1  0  0  0  0
  4 17  1  0  0  0  0
  5  6  1  0  0  0  0
  6  7  1  0  0  0  0
  8 10  2  0  0  0  0
  8 12  1  0  0  0  0
  9 11  2  0  0  0  0
  9 13  1  0  0  0  0
 10 14  1  0  0  0  0
 11 15  1  0  0  0  0
 12 18  2  0  0  0  0
 13 19  2  0  0  0  0
 14 20  2  0  0  0  0
 15 21  2  0  0  0  0
 18 20  1  0  0  0  0
 19 21  1  0  0  0  0
M  END
>  <DATABASE_ID>
DB00477

>  <DATABASE_NAME>
drugbank

>  <SMILES>
Clc1cc2N(c3c(Sc2cc1)cccc3)CCCN(C)C

>  <INCHI_IDENTIFIER>
InChI=1S/C17H19ClN2S/c1-19(2)10-5-11-20-14-6-3-4-7-16(14)21-17-9-8-13(18)12-15(17)20/h3-4,6-9,12H,5,10-11H2,1-2H3

>  <INCHI_KEY>
InChIKey=ZPEIMTDSQAKGNT-UHFFFAOYSA-N

>  <JCHEM_ACCEPTOR_COUNT>
2

>  <JCHEM_AVERAGE_POLARIZABILITY>
35.100712

>  <JCHEM_BIOAVAILABILITY>
1

>  <JCHEM_DONOR_COUNT>
0

>  <JCHEM_EXACT_MASS>
318.09573

>  <JCHEM_FORMAL_CHARGE>
0

>  <JCHEM_FORMULA>
C17H19ClN2S

>  <JCHEM_GHOSE_FILTER>
1

>  <JCHEM_IUPAC>
[3-(2-chloro-10H-phenothiazin-10-yl)propyl]dimethylamine

>  <ALOGPS_LOGP>
5.1799998

>  <JCHEM_LOGP>
4.5350003

>  <ALOGPS_LOGS>
-4.8800001

>  <JCHEM_MASS>
318.86401

>  <JCHEM_MDDR_LIKE_RULE>
0

>  <JCHEM_NUMBER_OF_RINGS>
3

>  <JCHEM_PHYSIOLOGICAL_CHARGE>
1

>  <JCHEM_PKA_STRONGEST_BASIC>
9.1969767

>  <JCHEM_POLAR_SURFACE_AREA>
6.48

>  <JCHEM_REFRACTIVITY>
93.756302

>  <JCHEM_ROTATABLE_BOND_COUNT>
4

>  <JCHEM_RULE_OF_FIVE>
1

>  <ALOGPS_SOLUBILITY>
4.17e-03 g/l

>  <JCHEM_TRADITIONAL_IUPAC>
chlorpromazine

>  <JCHEM_VEBER_RULE>
1

>  <DRUGBANK_ID>
DB00477

>  <DRUG_GROUPS>
approved

>  <GENERIC_NAME>
Chlorpromazine

>  <BRANDS>
Chlorpromanyl; Largactil; Thorazine

>  <SALTS>
Chlorpromazine hydrochloride

$$$$
Rimantadine
 OpenBabel02121510022D

 13 15  0  0  1  0  0  0  0  0999 V2000
    3.8090    1.3600    0.0000 N   0  0  0  0  0  0  0  0  0  0  0  0
    3.0820    0.1010    0.0000 C   0  0  3  0  0  0  0  0  0  0  0  0
    2.3810   -1.1150    0.0000 C   0  0  3  0  0  0  0  0  0  0  0  0
    2.5020   -1.4800    0.0000 C   0  0  3  0  0  0  0  0  0  0  0  0
    3.7840   -1.1150    0.0000 C   0  0  3  0  0  0  0  0  0  0  0  0
    2.3810   -0.3040    0.0000 C   0  0  0  0  0  0  0  0  0  0  0  0
    2.5020   -0.6030    0.0000 C   0  0  0  0  0  0  0  0  0  0  0  0
    3.7840   -0.3040    0.0000 C   0  0  0  0  0  0  0  0  0  0  0  0
    1.6780   -1.5200    0.0000 C   0  0  0  0  0  0  0  0  0  0  0  0
    3.0820   -1.3690    0.0000 C   0  0  0  0  0  0  0  0  0  0  0  0
    3.2620   -1.8800    0.0000 C   0  0  0  0  0  0  0  0  0  0  0  0
    3.0820    0.9400    0.0000 C   0  0  3  0  0  0  0  0  0  0  0  0
    2.3560    1.3600    0.0000 C   0  0  0  0  0  0  0  0  0  0  0  0
  1 12  1  0  0  0  0
  2  6  1  0  0  0  0
  2  7  1  0  0  0  0
  2  8  1  0  0  0  0
  2 12  1  0  0  0  0
  3  6  1  0  0  0  0
  3  9  1  0  0  0  0
  3 10  1  0  0  0  0
  4  7  1  0  0  0  0
  4  9  1  0  0  0  0
  4 11  1  0  0  0  0
  5  8  1  0  0  0  0
  5 10  1  0  0  0  0
  5 11  1  0  0  0  0
 12 13  1  0  0  0  0
M  END
>  <DATABASE_ID>
DB00478

>  <DATABASE_NAME>
drugbank

>  <SMILES>
NC(C)C12CC3CC(C1)CC(C2)C3

>  <INCHI_IDENTIFIER>
InChI=1S/C12H21N/c1-8(13)12-5-9-2-10(6-12)4-11(3-9)7-12/h8-11H,2-7,13H2,1H3

>  <INCHI_KEY>
InChIKey=UBCHPRBFMUDMNC-UHFFFAOYSA-N

>  <JCHEM_ACCEPTOR_COUNT>
1

>  <JCHEM_AVERAGE_POLARIZABILITY>
21.794788

>  <JCHEM_BIOAVAILABILITY>
1

>  <JCHEM_DONOR_COUNT>
1

>  <JCHEM_EXACT_MASS>
179.1674

>  <JCHEM_FORMAL_CHARGE>
0

>  <JCHEM_FORMULA>
C12H21N

>  <JCHEM_GHOSE_FILTER>
1

>  <JCHEM_IUPAC>
1-(adamantan-1-yl)ethan-1-amine

>  <ALOGPS_LOGP>
3.28

>  <JCHEM_LOGP>
2.2170057

>  <ALOGPS_LOGS>
-4.29

>  <JCHEM_MASS>
179.3018

>  <JCHEM_MDDR_LIKE_RULE>
0

>  <JCHEM_NUMBER_OF_RINGS>
3

>  <JCHEM_PHYSIOLOGICAL_CHARGE>
1

>  <JCHEM_PKA_STRONGEST_BASIC>
10.142245

>  <JCHEM_POLAR_SURFACE_AREA>
26.02

>  <JCHEM_REFRACTIVITY>
54.522099

>  <JCHEM_ROTATABLE_BOND_COUNT>
1

>  <JCHEM_RULE_OF_FIVE>
1

>  <ALOGPS_SOLUBILITY>
9.15e-03 g/l

>  <JCHEM_TRADITIONAL_IUPAC>
rimantadine

>  <JCHEM_VEBER_RULE>
1

>  <DRUGBANK_ID>
DB00478

>  <DRUG_GROUPS>
approved

>  <GENERIC_NAME>
Rimantadine

>  <BRANDS>
Flumadine

>  <SALTS>
Rimantadine Hydrochloride

$$$$
Lenalidomide
 OpenBabel02121510022D

 19 21  0  0  1  0  0  0  0  0999 V2000
    4.1160   -1.6770    0.0000 O   0  0  0  0  0  0  0  0  0  0  0  0
    5.1660    1.2000    0.0000 O   0  0  0  0  0  0  0  0  0  0  0  0
    7.6410   -0.2290    0.0000 O   0  0  0  0  0  0  0  0  0  0  0  0
    4.3410   -0.2290    0.0000 N   0  0  0  0  0  0  0  0  0  0  0  0
    6.4040    0.4860    0.0000 N   0  0  0  0  0  0  0  0  0  0  0  0
    2.3640    1.4210    0.0000 N   0  0  0  0  0  0  0  0  0  0  0  0
    5.1660   -0.2290    0.0000 C   0  0  3  0  0  0  0  0  0  0  0  0
    5.5790   -0.9430    0.0000 C   0  0  0  0  0  0  0  0  0  0  0  0
    3.8600    0.4350    0.0000 C   0  0  0  0  0  0  0  0  0  0  0  0
    3.0790    0.1840    0.0000 C   0  0  0  0  0  0  0  0  0  0  0  0
    3.8600   -0.8930    0.0000 C   0  0  0  0  0  0  0  0  0  0  0  0
    6.4040   -0.9430    0.0000 C   0  0  0  0  0  0  0  0  0  0  0  0
    3.0790   -0.6410    0.0000 C   0  0  0  0  0  0  0  0  0  0  0  0
    5.5790    0.4860    0.0000 C   0  0  0  0  0  0  0  0  0  0  0  0
    6.8160   -0.2290    0.0000 C   0  0  0  0  0  0  0  0  0  0  0  0
    2.3640    0.5960    0.0000 C   0  0  0  0  0  0  0  0  0  0  0  0
    2.3640   -1.0540    0.0000 C   0  0  0  0  0  0  0  0  0  0  0  0
    1.6500    0.1840    0.0000 C   0  0  0  0  0  0  0  0  0  0  0  0
    1.6500   -0.6410    0.0000 C   0  0  0  0  0  0  0  0  0  0  0  0
  1 11  2  0  0  0  0
  2 14  2  0  0  0  0
  3 15  2  0  0  0  0
  4  7  1  0  0  0  0
  4  9  1  0  0  0  0
  4 11  1  0  0  0  0
  5 14  1  0  0  0  0
  5 15  1  0  0  0  0
  6 16  1  0  0  0  0
  7  8  1  0  0  0  0
  7 14  1  0  0  0  0
  8 12  1  0  0  0  0
  9 10  1  0  0  0  0
 10 13  2  0  0  0  0
 10 16  1  0  0  0  0
 11 13  1  0  0  0  0
 12 15  1  0  0  0  0
 13 17  1  0  0  0  0
 16 18  2  0  0  0  0
 17 19  2  0  0  0  0
 18 19  1  0  0  0  0
M  END
>  <DATABASE_ID>
DB00480

>  <DATABASE_NAME>
drugbank

>  <SMILES>
O=C1NC(=O)CCC1N1Cc2c(cccc2N)C1=O

>  <INCHI_IDENTIFIER>
InChI=1S/C13H13N3O3/c14-9-3-1-2-7-8(9)6-16(13(7)19)10-4-5-11(17)15-12(10)18/h1-3,10H,4-6,14H2,(H,15,17,18)

>  <INCHI_KEY>
InChIKey=GOTYRUGSSMKFNF-UHFFFAOYSA-N

>  <JCHEM_ACCEPTOR_COUNT>
4

>  <JCHEM_AVERAGE_POLARIZABILITY>
25.545881

>  <JCHEM_BIOAVAILABILITY>
1

>  <JCHEM_DONOR_COUNT>
2

>  <JCHEM_EXACT_MASS>
259.0957

>  <JCHEM_FORMAL_CHARGE>
0

>  <JCHEM_FORMULA>
C13H13N3O3

>  <JCHEM_GHOSE_FILTER>
0

>  <JCHEM_IUPAC>
3-(4-amino-1-oxo-2,3-dihydro-1H-isoindol-2-yl)piperidine-2,6-dione

>  <ALOGPS_LOGP>
-0.43000001

>  <JCHEM_LOGP>
-0.70785218

>  <ALOGPS_LOGS>
-2.05

>  <JCHEM_MASS>
259.26059

>  <JCHEM_MDDR_LIKE_RULE>
0

>  <JCHEM_NUMBER_OF_RINGS>
3

>  <JCHEM_PHYSIOLOGICAL_CHARGE>
0

>  <JCHEM_PKA>
15.211844

>  <JCHEM_PKA_STRONGEST_ACIDIC>
11.613173

>  <JCHEM_PKA_STRONGEST_BASIC>
2.3135467

>  <JCHEM_POLAR_SURFACE_AREA>
92.5

>  <JCHEM_REFRACTIVITY>
68.298103

>  <JCHEM_ROTATABLE_BOND_COUNT>
1

>  <JCHEM_RULE_OF_FIVE>
1

>  <ALOGPS_SOLUBILITY>
2.33e+00 g/l

>  <JCHEM_TRADITIONAL_IUPAC>
lenalidomide

>  <JCHEM_VEBER_RULE>
0

>  <DRUGBANK_ID>
DB00480

>  <DRUG_GROUPS>
approved

>  <GENERIC_NAME>
Lenalidomide

>  <SYNONYMS>
CC-5013; IMid-1

>  <BRANDS>
Ladevina; Lenangio ; Revlimid

$$$$
Raloxifene
 OpenBabel02121510022D

 34 38  0  0  0  0  0  0  0  0999 V2000
    4.5740   -3.8230    0.0000 S   0  0  0  0  0  0  0  0  0  0  0  0
    2.6260    0.7450    0.0000 O   0  0  0  0  0  0  0  0  0  0  0  0
    5.6380   -1.5410    0.0000 O   0  0  0  0  0  0  0  0  0  0  0  0
    1.6500   -3.9840    0.0000 O   0  0  0  0  0  0  0  0  0  0  0  0
    8.3560   -3.1590    0.0000 O   0  0  0  0  0  0  0  0  0  0  0  0
    2.5880    2.9280    0.0000 N   0  0  0  0  0  0  0  0  0  0  0  0
    3.3950    3.0980    0.0000 C   0  0  0  0  0  0  0  0  0  0  0  0
    2.0370    3.5420    0.0000 C   0  0  0  0  0  0  0  0  0  0  0  0
    3.6520    3.8820    0.0000 C   0  0  0  0  0  0  0  0  0  0  0  0
    2.2940    4.3260    0.0000 C   0  0  0  0  0  0  0  0  0  0  0  0
    3.1010    4.4960    0.0000 C   0  0  0  0  0  0  0  0  0  0  0  0
    2.3320    2.1430    0.0000 C   0  0  0  0  0  0  0  0  0  0  0  0
    2.8830    1.5290    0.0000 C   0  0  0  0  0  0  0  0  0  0  0  0
    3.1780    0.1310    0.0000 C   0  0  0  0  0  0  0  0  0  0  0  0
    4.5740   -2.4950    0.0000 C   0  0  0  0  0  0  0  0  0  0  0  0
    3.7940   -2.7470    0.0000 C   0  0  0  0  0  0  0  0  0  0  0  0
    5.0560   -3.1590    0.0000 C   0  0  0  0  0  0  0  0  0  0  0  0
    3.7940   -3.5720    0.0000 C   0  0  0  0  0  0  0  0  0  0  0  0
    4.2800   -1.0970    0.0000 C   0  0  0  0  0  0  0  0  0  0  0  0
    4.8300   -1.7110    0.0000 C   0  0  0  0  0  0  0  0  0  0  0  0
    2.9210   -0.6530    0.0000 C   0  0  0  0  0  0  0  0  0  0  0  0
    3.9850    0.3010    0.0000 C   0  0  0  0  0  0  0  0  0  0  0  0
    3.4720   -1.2670    0.0000 C   0  0  0  0  0  0  0  0  0  0  0  0
    4.5360   -0.3130    0.0000 C   0  0  0  0  0  0  0  0  0  0  0  0
    5.8810   -3.1590    0.0000 C   0  0  0  0  0  0  0  0  0  0  0  0
    3.0790   -2.3340    0.0000 C   0  0  0  0  0  0  0  0  0  0  0  0
    3.0790   -3.9840    0.0000 C   0  0  0  0  0  0  0  0  0  0  0  0
    2.3640   -2.7470    0.0000 C   0  0  0  0  0  0  0  0  0  0  0  0
    2.3640   -3.5720    0.0000 C   0  0  0  0  0  0  0  0  0  0  0  0
    6.2930   -2.4450    0.0000 C   0  0  0  0  0  0  0  0  0  0  0  0
    6.2930   -3.8740    0.0000 C   0  0  0  0  0  0  0  0  0  0  0  0
    7.1180   -2.4450    0.0000 C   0  0  0  0  0  0  0  0  0  0  0  0
    7.1180   -3.8740    0.0000 C   0  0  0  0  0  0  0  0  0  0  0  0
    7.5310   -3.1590    0.0000 C   0  0  0  0  0  0  0  0  0  0  0  0
  1 17  1  0  0  0  0
  1 18  1  0  0  0  0
  2 13  1  0  0  0  0
  2 14  1  0  0  0  0
  3 20  2  0  0  0  0
  4 29  1  0  0  0  0
  5 34  1  0  0  0  0
  6  7  1  0  0  0  0
  6  8  1  0  0  0  0
  6 12  1  0  0  0  0
  7  9  1  0  0  0  0
  8 10  1  0  0  0  0
  9 11  1  0  0  0  0
 10 11  1  0  0  0  0
 12 13  1  0  0  0  0
 14 21  2  0  0  0  0
 14 22  1  0  0  0  0
 15 16  1  0  0  0  0
 15 17  2  0  0  0  0
 15 20  1  0  0  0  0
 16 18  2  0  0  0  0
 16 26  1  0  0  0  0
 17 25  1  0  0  0  0
 18 27  1  0  0  0  0
 19 20  1  0  0  0  0
 19 23  2  0  0  0  0
 19 24  1  0  0  0  0
 21 23  1  0  0  0  0
 22 24  2  0  0  0  0
 25 30  2  0  0  0  0
 25 31  1  0  0  0  0
 26 28  2  0  0  0  0
 27 29  2  0  0  0  0
 28 29  1  0  0  0  0
 30 32  1  0  0  0  0
 31 33  2  0  0  0  0
 32 34  2  0  0  0  0
 33 34  1  0  0  0  0
M  END
>  <DATABASE_ID>
DB00481

>  <DATABASE_NAME>
drugbank

>  <SMILES>
s1c2c(ccc(O)c2)c(C(=O)c2ccc(OCCN3CCCCC3)cc2)c1-c1ccc(O)cc1

>  <INCHI_IDENTIFIER>
InChI=1S/C28H27NO4S/c30-21-8-4-20(5-9-21)28-26(24-13-10-22(31)18-25(24)34-28)27(32)19-6-11-23(12-7-19)33-17-16-29-14-2-1-3-15-29/h4-13,18,30-31H,1-3,14-17H2

>  <INCHI_KEY>
InChIKey=GZUITABIAKMVPG-UHFFFAOYSA-N

>  <JCHEM_ACCEPTOR_COUNT>
5

>  <JCHEM_AVERAGE_POLARIZABILITY>
52.54504

>  <JCHEM_BIOAVAILABILITY>
1

>  <JCHEM_DONOR_COUNT>
2

>  <JCHEM_EXACT_MASS>
473.16608

>  <JCHEM_FORMAL_CHARGE>
0

>  <JCHEM_FORMULA>
C28H27NO4S

>  <JCHEM_GHOSE_FILTER>
0

>  <JCHEM_IUPAC>
2-(4-hydroxyphenyl)-3-({4-[2-(piperidin-1-yl)ethoxy]phenyl}carbonyl)-1-benzothiophen-6-ol

>  <ALOGPS_LOGP>
5.4499998

>  <JCHEM_LOGP>
5.6926293

>  <ALOGPS_LOGS>
-5.9699998

>  <JCHEM_MASS>
473.58301

>  <JCHEM_MDDR_LIKE_RULE>
1

>  <JCHEM_NUMBER_OF_RINGS>
5

>  <JCHEM_PHYSIOLOGICAL_CHARGE>
1

>  <JCHEM_PKA>
9.5522127

>  <JCHEM_PKA_STRONGEST_ACIDIC>
8.8922272

>  <JCHEM_PKA_STRONGEST_BASIC>
7.9535956

>  <JCHEM_POLAR_SURFACE_AREA>
70

>  <JCHEM_REFRACTIVITY>
135.48

>  <JCHEM_ROTATABLE_BOND_COUNT>
7

>  <JCHEM_RULE_OF_FIVE>
0

>  <ALOGPS_SOLUBILITY>
5.12e-04 g/l

>  <JCHEM_TRADITIONAL_IUPAC>
raloxifene

>  <JCHEM_VEBER_RULE>
0

>  <DRUGBANK_ID>
DB00481

>  <DRUG_GROUPS>
approved; investigational

>  <GENERIC_NAME>
Raloxifene

>  <SYNONYMS>
RAL; Raloxifeno; Raloxifenum

>  <BRANDS>
Evista; Keoxifene

>  <SALTS>
Raloxifene Hydrochloride

$$$$
Celecoxib
 OpenBabel02121510022D

 26 28  0  0  0  0  0  0  0  0999 V2000
    3.2150   -2.4120    0.0000 S   0  0  0  0  0  0  0  0  0  0  0  0
    1.6500    2.3400    0.0000 F   0  0  0  0  0  0  0  0  0  0  0  0
    2.9850    3.3100    0.0000 F   0  0  0  0  0  0  0  0  0  0  0  0
    1.8320    3.4930    0.0000 F   0  0  0  0  0  0  0  0  0  0  0  0
    4.0400   -2.4120    0.0000 O   0  0  0  0  0  0  0  0  0  0  0  0
    2.3900   -2.4120    0.0000 O   0  0  0  0  0  0  0  0  0  0  0  0
    3.2150    0.8880    0.0000 N   0  0  0  0  0  0  0  0  0  0  0  0
    2.5480    1.3730    0.0000 N   0  0  0  0  0  0  0  0  0  0  0  0
    3.2150   -3.2370    0.0000 N   0  0  0  0  0  0  0  0  0  0  0  0
    3.8820    1.3730    0.0000 C   0  0  0  0  0  0  0  0  0  0  0  0
    3.2150    0.0630    0.0000 C   0  0  0  0  0  0  0  0  0  0  0  0
    4.6670    1.1180    0.0000 C   0  0  0  0  0  0  0  0  0  0  0  0
    3.6270    2.1580    0.0000 C   0  0  0  0  0  0  0  0  0  0  0  0
    2.8020    2.1580    0.0000 C   0  0  0  0  0  0  0  0  0  0  0  0
    3.9290   -0.3490    0.0000 C   0  0  0  0  0  0  0  0  0  0  0  0
    2.5000   -0.3490    0.0000 C   0  0  0  0  0  0  0  0  0  0  0  0
    3.2150   -1.5870    0.0000 C   0  0  0  0  0  0  0  0  0  0  0  0
    4.8390    0.3110    0.0000 C   0  0  0  0  0  0  0  0  0  0  0  0
    5.2800    1.6700    0.0000 C   0  0  0  0  0  0  0  0  0  0  0  0
    3.9290   -1.1740    0.0000 C   0  0  0  0  0  0  0  0  0  0  0  0
    2.5000   -1.1740    0.0000 C   0  0  0  0  0  0  0  0  0  0  0  0
    6.2360    0.6080    0.0000 C   0  0  0  0  0  0  0  0  0  0  0  0
    5.6230    0.0560    0.0000 C   0  0  0  0  0  0  0  0  0  0  0  0
    6.0650    1.4150    0.0000 C   0  0  0  0  0  0  0  0  0  0  0  0
    2.3180    2.8250    0.0000 C   0  0  0  0  0  0  0  0  0  0  0  0
    7.0210    0.3530    0.0000 C   0  0  0  0  0  0  0  0  0  0  0  0
  1  5  2  0  0  0  0
  1  6  2  0  0  0  0
  1  9  1  0  0  0  0
  1 17  1  0  0  0  0
  2 25  1  0  0  0  0
  3 25  1  0  0  0  0
  4 25  1  0  0  0  0
  7  8  1  0  0  0  0
  7 10  1  0  0  0  0
  7 11  1  0  0  0  0
  8 14  2  0  0  0  0
 10 12  1  0  0  0  0
 10 13  2  0  0  0  0
 11 15  2  0  0  0  0
 11 16  1  0  0  0  0
 12 18  2  0  0  0  0
 12 19  1  0  0  0  0
 13 14  1  0  0  0  0
 14 25  1  0  0  0  0
 15 20  1  0  0  0  0
 16 21  2  0  0  0  0
 17 20  2  0  0  0  0
 17 21  1  0  0  0  0
 18 23  1  0  0  0  0
 19 24  2  0  0  0  0
 22 23  2  0  0  0  0
 22 24  1  0  0  0  0
 22 26  1  0  0  0  0
M  END
>  <DATABASE_ID>
DB00482

>  <DATABASE_NAME>
drugbank

>  <SMILES>
S(=O)(=O)(N)c1ccc(-n2nc(cc2-c2ccc(cc2)C)C(F)(F)F)cc1

>  <INCHI_IDENTIFIER>
InChI=1S/C17H14F3N3O2S/c1-11-2-4-12(5-3-11)15-10-16(17(18,19)20)22-23(15)13-6-8-14(9-7-13)26(21,24)25/h2-10H,1H3,(H2,21,24,25)

>  <INCHI_KEY>
InChIKey=RZEKVGVHFLEQIL-UHFFFAOYSA-N

>  <JCHEM_ACCEPTOR_COUNT>
3

>  <JCHEM_AVERAGE_POLARIZABILITY>
35.200203

>  <JCHEM_BIOAVAILABILITY>
1

>  <JCHEM_DONOR_COUNT>
1

>  <JCHEM_EXACT_MASS>
381.0759

>  <JCHEM_FORMAL_CHARGE>
0

>  <JCHEM_FORMULA>
C17H14F3N3O2S

>  <JCHEM_GHOSE_FILTER>
1

>  <JCHEM_IUPAC>
4-[5-(4-methylphenyl)-3-(trifluoromethyl)-1H-pyrazol-1-yl]benzene-1-sulfonamide

>  <ALOGPS_LOGP>
3.99

>  <JCHEM_LOGP>
4.0094419

>  <ALOGPS_LOGS>
-4.8800001

>  <JCHEM_MASS>
381.37201

>  <JCHEM_MDDR_LIKE_RULE>
0

>  <JCHEM_NUMBER_OF_RINGS>
3

>  <JCHEM_PHYSIOLOGICAL_CHARGE>
0

>  <JCHEM_PKA_STRONGEST_ACIDIC>
10.70145

>  <JCHEM_PKA_STRONGEST_BASIC>
-0.41871116

>  <JCHEM_POLAR_SURFACE_AREA>
77.980003

>  <JCHEM_REFRACTIVITY>
92.2342

>  <JCHEM_ROTATABLE_BOND_COUNT>
4

>  <JCHEM_RULE_OF_FIVE>
1

>  <ALOGPS_SOLUBILITY>
5.03e-03 g/l

>  <JCHEM_TRADITIONAL_IUPAC>
celecoxib

>  <JCHEM_VEBER_RULE>
0

>  <DRUGBANK_ID>
DB00482

>  <DRUG_GROUPS>
approved; investigational

>  <GENERIC_NAME>
Celecoxib

>  <SYNONYMS>
Celecoxib; Célécoxib; Celecoxibum

>  <BRANDS>
Articox; Articoxib; Artiflex; Artilog; Artix; Artrixib; Blockten; Caditar; Cefinix; Celact; Celebra; Celebrex; Onsenal; Valdyne

$$$$
Dicloxacillin
 OpenBabel02121510022D

 31 34  0  0  1  0  0  0  0  0999 V2000
    2.3010    1.9920    0.0000 Cl  0  0  0  0  0  0  0  0  0  0  0  0
    3.8530   -0.4080    0.0000 Cl  0  0  0  0  0  0  0  0  0  0  0  0
    8.1630    0.6610    0.0000 S   0  0  0  0  0  0  0  0  0  0  0  0
    5.9650   -1.0070    0.0000 O   0  0  0  0  0  0  0  0  0  0  0  0
    7.8660   -2.0710    0.0000 O   0  0  0  0  0  0  0  0  0  0  0  0
    9.2250   -1.6300    0.0000 O   0  0  0  0  0  0  0  0  0  0  0  0
    4.9520   -0.0140    0.0000 O   0  0  0  0  0  0  0  0  0  0  0  0
    3.9820    2.5580    0.0000 O   0  0  0  0  0  0  0  0  0  0  0  0
    7.3790   -0.4190    0.0000 N   0  0  0  0  0  0  0  0  0  0  0  0
    5.9650    0.9940    0.0000 N   0  0  0  0  0  0  0  0  0  0  0  0
    3.3970    1.9760    0.0000 N   0  0  0  0  0  0  0  0  0  0  0  0
    7.3790    0.4060    0.0000 C   0  0  1  0  0  0  0  0  0  0  0  0
    8.6480   -0.0060    0.0000 C   0  0  0  0  0  0  0  0  0  0  0  0
    8.1630   -0.6740    0.0000 C   0  0  2  0  0  0  0  0  0  0  0  0
    6.5470    0.4100    0.0000 C   0  0  1  0  0  0  0  0  0  0  0  0
    6.5470   -0.4220    0.0000 C   0  0  0  0  0  0  0  0  0  0  0  0
    9.3160    0.4790    0.0000 C   0  0  0  0  0  0  0  0  0  0  0  0
    9.3160   -0.4910    0.0000 C   0  0  0  0  0  0  0  0  0  0  0  0
    8.4180   -1.4580    0.0000 C   0  0  0  0  0  0  0  0  0  0  0  0
    5.1670    0.7820    0.0000 C   0  0  0  0  0  0  0  0  0  0  0  0
    4.5850    1.3670    0.0000 C   0  0  0  0  0  0  0  0  0  0  0  0
    3.7700    1.2400    0.0000 C   0  0  0  0  0  0  0  0  0  0  0  0
    4.7160    2.1820    0.0000 C   0  0  0  0  0  0  0  0  0  0  0  0
    3.0770    0.7920    0.0000 C   0  0  0  0  0  0  0  0  0  0  0  0
    5.4520    2.5550    0.0000 C   0  0  0  0  0  0  0  0  0  0  0  0
    2.3430    1.1680    0.0000 C   0  0  0  0  0  0  0  0  0  0  0  0
    3.1190   -0.0320    0.0000 C   0  0  0  0  0  0  0  0  0  0  0  0
    1.6500    0.7200    0.0000 C   0  0  0  0  0  0  0  0  0  0  0  0
    2.4260   -0.4800    0.0000 C   0  0  0  0  0  0  0  0  0  0  0  0
    1.6920   -0.1040    0.0000 C   0  0  0  0  0  0  0  0  0  0  0  0
    7.2770    1.0580    0.0000 H   0  0  0  0  0  0  0  0  0  0  0  0
  1 26  1  0  0  0  0
  2 27  1  0  0  0  0
  3 12  1  0  0  0  0
  3 13  1  0  0  0  0
  4 16  2  0  0  0  0
  5 19  1  0  0  0  0
  6 19  2  0  0  0  0
  7 20  2  0  0  0  0
  8 11  1  0  0  0  0
  8 23  1  0  0  0  0
  9 12  1  0  0  0  0
  9 14  1  0  0  0  0
  9 16  1  0  0  0  0
 10 20  1  0  0  0  0
 11 22  2  0  0  0  0
 12 15  1  0  0  0  0
 12 31  1  6  0  0  0
 13 14  1  0  0  0  0
 13 17  1  0  0  0  0
 13 18  1  0  0  0  0
 14 19  1  6  0  0  0
 15 10  1  1  0  0  0
 15 16  1  0  0  0  0
 20 21  1  0  0  0  0
 21 22  1  0  0  0  0
 21 23  2  0  0  0  0
 22 24  1  0  0  0  0
 23 25  1  0  0  0  0
 24 26  2  0  0  0  0
 24 27  1  0  0  0  0
 26 28  1  0  0  0  0
 27 29  2  0  0  0  0
 28 30  2  0  0  0  0
 29 30  1  0  0  0  0
M  END
>  <DATABASE_ID>
DB00485

>  <DATABASE_NAME>
drugbank

>  <SMILES>
Clc1cccc(Cl)c1-c1noc(C)c1C(=O)N[C@H]1[C@H]2SC(C)(C)[C@@H](N2C1=O)C(O)=O

>  <INCHI_IDENTIFIER>
InChI=1S/C19H17Cl2N3O5S/c1-7-10(12(23-29-7)11-8(20)5-4-6-9(11)21)15(25)22-13-16(26)24-14(18(27)28)19(2,3)30-17(13)24/h4-6,13-14,17H,1-3H3,(H,22,25)(H,27,28)/t13-,14+,17-/m1/s1

>  <INCHI_KEY>
InChIKey=YFAGHNZHGGCZAX-JKIFEVAISA-N

>  <JCHEM_ACCEPTOR_COUNT>
5

>  <JCHEM_AVERAGE_POLARIZABILITY>
42.862774

>  <JCHEM_BIOAVAILABILITY>
1

>  <JCHEM_DONOR_COUNT>
2

>  <JCHEM_EXACT_MASS>
469.02661

>  <JCHEM_FORMAL_CHARGE>
0

>  <JCHEM_FORMULA>
C19H17Cl2N3O5S

>  <JCHEM_GHOSE_FILTER>
1

>  <JCHEM_IUPAC>
(2S,5R,6R)-6-[3-(2,6-dichlorophenyl)-5-methyl-1,2-oxazole-4-amido]-3,3-dimethyl-7-oxo-4-thia-1-azabicyclo[3.2.0]heptane-2-carboxylic acid

>  <ALOGPS_LOGP>
3.1900001

>  <JCHEM_LOGP>
2.9057844

>  <ALOGPS_LOGS>
-4.1999998

>  <JCHEM_MASS>
470.32599

>  <JCHEM_MDDR_LIKE_RULE>
0

>  <JCHEM_NUMBER_OF_RINGS>
4

>  <JCHEM_PHYSIOLOGICAL_CHARGE>
-1

>  <JCHEM_PKA>
13.642331

>  <JCHEM_PKA_STRONGEST_ACIDIC>
3.7486086

>  <JCHEM_PKA_STRONGEST_BASIC>
-0.70930332

>  <JCHEM_POLAR_SURFACE_AREA>
112.74

>  <JCHEM_REFRACTIVITY>
111.4419

>  <JCHEM_ROTATABLE_BOND_COUNT>
3

>  <JCHEM_RULE_OF_FIVE>
1

>  <ALOGPS_SOLUBILITY>
2.96e-02 g/l

>  <JCHEM_TRADITIONAL_IUPAC>
dicloxacillin

>  <JCHEM_VEBER_RULE>
0

>  <DRUGBANK_ID>
DB00485

>  <DRUG_GROUPS>
approved

>  <GENERIC_NAME>
Dicloxacillin

>  <SYNONYMS>
Dicloxacilina; Dicloxacillin; Dicloxacillina; Dicloxacilline; Dicloxacillinum

>  <BRANDS>
Amcidil; Betaclox; Cloxagen; Dacocilin; Damacir; Dicillin; Diclex; Diclocil; Dicloplus; Dicloson; Dicloxal; Dicloxgen; Dicloxina; Dyclobiot; Dynapen; Posipen; Quimocyclar; Staklox; Terbocloxil; Ziefmycin

>  <SALTS>
Dicloxacillin Sodium

$$$$
Nabilone
 OpenBabel02121510022D

 29 31  0  0  1  0  0  0  0  0999 V2000
    8.8490   -1.5180    0.0000 O   0  0  0  0  0  0  0  0  0  0  0  0
    9.5740    2.2510    0.0000 O   0  0  0  0  0  0  0  0  0  0  0  0
    7.4070    0.9850    0.0000 O   0  0  0  0  0  0  0  0  0  0  0  0
    9.5640   -0.2810    0.0000 C   0  0  2  0  0  0  0  0  0  0  0  0
    8.8490    0.1320    0.0000 C   0  0  1  0  0  0  0  0  0  0  0  0
    9.5640   -1.1060    0.0000 C   0  0  0  0  0  0  0  0  0  0  0  0
   10.3140    0.1370    0.0000 C   0  0  0  0  0  0  0  0  0  0  0  0
    8.8360    0.9910    0.0000 C   0  0  0  0  0  0  0  0  0  0  0  0
    8.1350   -0.2810    0.0000 C   0  0  0  0  0  0  0  0  0  0  0  0
   10.3210    0.9960    0.0000 C   0  0  0  0  0  0  0  0  0  0  0  0
    8.1350   -1.1060    0.0000 C   0  0  0  0  0  0  0  0  0  0  0  0
    9.5770    1.4260    0.0000 C   0  0  0  0  0  0  0  0  0  0  0  0
    9.9760   -1.8200    0.0000 C   0  0  0  0  0  0  0  0  0  0  0  0
   10.3890   -1.1060    0.0000 C   0  0  0  0  0  0  0  0  0  0  0  0
    7.3970    0.1600    0.0000 C   0  0  0  0  0  0  0  0  0  0  0  0
    5.9370   -1.5380    0.0000 C   0  0  0  0  0  0  0  0  0  0  0  0
    6.6500   -1.1230    0.0000 C   0  0  0  0  0  0  0  0  0  0  0  0
    7.3970   -1.5470    0.0000 C   0  0  0  0  0  0  0  0  0  0  0  0
    6.6500   -0.2640    0.0000 C   0  0  0  0  0  0  0  0  0  0  0  0
    5.2240   -1.9540    0.0000 C   0  0  0  0  0  0  0  0  0  0  0  0
    6.3520   -2.2510    0.0000 C   0  0  0  0  0  0  0  0  0  0  0  0
    5.5220   -0.8260    0.0000 C   0  0  0  0  0  0  0  0  0  0  0  0
    4.5080   -1.5440    0.0000 C   0  0  0  0  0  0  0  0  0  0  0  0
    3.7950   -1.9590    0.0000 C   0  0  0  0  0  0  0  0  0  0  0  0
    3.0790   -1.5490    0.0000 C   0  0  0  0  0  0  0  0  0  0  0  0
    2.3660   -1.9650    0.0000 C   0  0  0  0  0  0  0  0  0  0  0  0
    1.6500   -1.5550    0.0000 C   0  0  0  0  0  0  0  0  0  0  0  0
   10.1330   -0.6150    0.0000 H   0  0  0  0  0  0  0  0  0  0  0  0
    9.4180    0.4660    0.0000 H   0  0  0  0  0  0  0  0  0  0  0  0
  1  6  1  0  0  0  0
  1 11  1  0  0  0  0
  2 12  2  0  0  0  0
  3 15  1  0  0  0  0
  4  5  1  0  0  0  0
  4  6  1  0  0  0  0
  4  7  1  0  0  0  0
  4 28  1  6  0  0  0
  5  8  1  0  0  0  0
  5  9  1  0  0  0  0
  5 29  1  1  0  0  0
  6 13  1  0  0  0  0
  6 14  1  0  0  0  0
  7 10  1  0  0  0  0
  8 12  1  0  0  0  0
  9 11  1  0  0  0  0
  9 15  2  0  0  0  0
 10 12  1  0  0  0  0
 11 18  2  0  0  0  0
 15 19  1  0  0  0  0
 16 17  1  0  0  0  0
 16 20  1  0  0  0  0
 16 21  1  0  0  0  0
 16 22  1  0  0  0  0
 17 18  1  0  0  0  0
 17 19  2  0  0  0  0
 20 23  1  0  0  0  0
 23 24  1  0  0  0  0
 24 25  1  0  0  0  0
 25 26  1  0  0  0  0
 26 27  1  0  0  0  0
M  END
>  <DATABASE_ID>
DB00486

>  <DATABASE_NAME>
drugbank

>  <SMILES>
O1c2c([C@H]3[C@@H](CCC(=O)C3)C1(C)C)c(O)cc(c2)C(CCCCCC)(C)C

>  <INCHI_IDENTIFIER>
InChI=1S/C24H36O3/c1-6-7-8-9-12-23(2,3)16-13-20(26)22-18-15-17(25)10-11-19(18)24(4,5)27-21(22)14-16/h13-14,18-19,26H,6-12,15H2,1-5H3/t18-,19-/m1/s1

>  <INCHI_KEY>
InChIKey=GECBBEABIDMGGL-RTBURBONSA-N

>  <JCHEM_ACCEPTOR_COUNT>
3

>  <JCHEM_AVERAGE_POLARIZABILITY>
44.912178

>  <JCHEM_BIOAVAILABILITY>
1

>  <JCHEM_DONOR_COUNT>
1

>  <JCHEM_EXACT_MASS>
372.26645

>  <JCHEM_FORMAL_CHARGE>
0

>  <JCHEM_FORMULA>
C24H36O3

>  <JCHEM_GHOSE_FILTER>
0

>  <JCHEM_IUPAC>
(6aR,10aR)-1-hydroxy-6,6-dimethyl-3-(2-methyloctan-2-yl)-6H,6aH,7H,8H,9H,10H,10aH-benzo[c]isochromen-9-one

>  <ALOGPS_LOGP>
7.5

>  <JCHEM_LOGP>
6.3597035

>  <ALOGPS_LOGS>
-5.8800001

>  <JCHEM_MASS>
372.5408

>  <JCHEM_MDDR_LIKE_RULE>
1

>  <JCHEM_NUMBER_OF_RINGS>
3

>  <JCHEM_PHYSIOLOGICAL_CHARGE>
0

>  <JCHEM_PKA>
19.570236

>  <JCHEM_PKA_STRONGEST_ACIDIC>
9.3281927

>  <JCHEM_PKA_STRONGEST_BASIC>
-4.8909392

>  <JCHEM_POLAR_SURFACE_AREA>
46.529999

>  <JCHEM_REFRACTIVITY>
110.202

>  <JCHEM_ROTATABLE_BOND_COUNT>
6

>  <JCHEM_RULE_OF_FIVE>
0

>  <ALOGPS_SOLUBILITY>
4.93e-04 g/l

>  <JCHEM_TRADITIONAL_IUPAC>
nabilone

>  <JCHEM_VEBER_RULE>
0

>  <DRUGBANK_ID>
DB00486

>  <DRUG_GROUPS>
approved; investigational

>  <GENERIC_NAME>
Nabilone

>  <SYNONYMS>
Nabilon; Nabilona; Nabilone; Nabilonum

>  <BRANDS>
Cesamet; Nabilone

$$$$
Altretamine
 OpenBabel02121510022D

 15 15  0  0  0  0  0  0  0  0999 V2000
    3.7930    1.4440    0.0000 N   0  0  0  0  0  0  0  0  0  0  0  0
    5.2220   -1.0310    0.0000 N   0  0  0  0  0  0  0  0  0  0  0  0
    2.3640   -1.0310    0.0000 N   0  0  0  0  0  0  0  0  0  0  0  0
    4.5080    0.2060    0.0000 N   0  0  0  0  0  0  0  0  0  0  0  0
    3.0790    0.2060    0.0000 N   0  0  0  0  0  0  0  0  0  0  0  0
    3.7930   -1.0310    0.0000 N   0  0  0  0  0  0  0  0  0  0  0  0
    3.7930    0.6190    0.0000 C   0  0  0  0  0  0  0  0  0  0  0  0
    4.5080   -0.6190    0.0000 C   0  0  0  0  0  0  0  0  0  0  0  0
    3.0790   -0.6190    0.0000 C   0  0  0  0  0  0  0  0  0  0  0  0
    3.0790    1.8560    0.0000 C   0  0  0  0  0  0  0  0  0  0  0  0
    4.5080    1.8560    0.0000 C   0  0  0  0  0  0  0  0  0  0  0  0
    5.2220   -1.8560    0.0000 C   0  0  0  0  0  0  0  0  0  0  0  0
    5.9370   -0.6190    0.0000 C   0  0  0  0  0  0  0  0  0  0  0  0
    2.3640   -1.8560    0.0000 C   0  0  0  0  0  0  0  0  0  0  0  0
    1.6500   -0.6190    0.0000 C   0  0  0  0  0  0  0  0  0  0  0  0
  1  7  1  0  0  0  0
  1 10  1  0  0  0  0
  1 11  1  0  0  0  0
  2  8  1  0  0  0  0
  2 12  1  0  0  0  0
  2 13  1  0  0  0  0
  3  9  1  0  0  0  0
  3 14  1  0  0  0  0
  3 15  1  0  0  0  0
  4  7  2  0  0  0  0
  4  8  1  0  0  0  0
  5  7  1  0  0  0  0
  5  9  2  0  0  0  0
  6  8  2  0  0  0  0
  6  9  1  0  0  0  0
M  END
>  <DATABASE_ID>
DB00488

>  <DATABASE_NAME>
drugbank

>  <SMILES>
n1c(nc(nc1N(C)C)N(C)C)N(C)C

>  <INCHI_IDENTIFIER>
InChI=1S/C9H18N6/c1-13(2)7-10-8(14(3)4)12-9(11-7)15(5)6/h1-6H3

>  <INCHI_KEY>
InChIKey=UUVWYPNAQBNQJQ-UHFFFAOYSA-N

>  <JCHEM_ACCEPTOR_COUNT>
6

>  <JCHEM_AVERAGE_POLARIZABILITY>
23.695189

>  <JCHEM_BIOAVAILABILITY>
1

>  <JCHEM_DONOR_COUNT>
0

>  <JCHEM_EXACT_MASS>
210.1593

>  <JCHEM_FORMAL_CHARGE>
0

>  <JCHEM_FORMULA>
C9H18N6

>  <JCHEM_GHOSE_FILTER>
1

>  <JCHEM_IUPAC>
2-N,2-N,4-N,4-N,6-N,6-N-hexamethyl-1,3,5-triazine-2,4,6-triamine

>  <ALOGPS_LOGP>
2.4300001

>  <JCHEM_LOGP>
2.2162216

>  <ALOGPS_LOGS>
-1.83

>  <JCHEM_MASS>
210.2794

>  <JCHEM_MDDR_LIKE_RULE>
0

>  <JCHEM_NUMBER_OF_RINGS>
1

>  <JCHEM_PHYSIOLOGICAL_CHARGE>
1

>  <JCHEM_PKA_STRONGEST_BASIC>
7.7501121

>  <JCHEM_POLAR_SURFACE_AREA>
48.389999

>  <JCHEM_REFRACTIVITY>
65.645401

>  <JCHEM_ROTATABLE_BOND_COUNT>
3

>  <JCHEM_RULE_OF_FIVE>
1

>  <ALOGPS_SOLUBILITY>
3.10e+00 g/l

>  <JCHEM_TRADITIONAL_IUPAC>
altretamine

>  <JCHEM_VEBER_RULE>
0

>  <DRUGBANK_ID>
DB00488

>  <DRUG_GROUPS>
approved

>  <GENERIC_NAME>
Altretamine

>  <SYNONYMS>
Altretamin; Altretamina; Altrétamine; Altretaminum; Hexamethylmelamine

>  <BRANDS>
Hexalen; Hexastat

$$$$
Sotalol
 OpenBabel02121510022D

 18 18  0  0  1  0  0  0  0  0999 V2000
    4.5080    2.7370    0.0000 S   0  0  0  0  0  0  0  0  0  0  0  0
    4.5080   -1.3880    0.0000 O   0  0  0  0  0  0  0  0  0  0  0  0
    4.9200    2.0220    0.0000 O   0  0  0  0  0  0  0  0  0  0  0  0
    4.0960    3.4510    0.0000 O   0  0  0  0  0  0  0  0  0  0  0  0
    3.0790   -2.2140    0.0000 N   0  0  0  0  0  0  0  0  0  0  0  0
    3.7940    2.3240    0.0000 N   0  0  0  0  0  0  0  0  0  0  0  0
    3.7940   -0.9760    0.0000 C   0  0  3  0  0  0  0  0  0  0  0  0
    3.0790   -1.3880    0.0000 C   0  0  0  0  0  0  0  0  0  0  0  0
    2.3640   -2.6260    0.0000 C   0  0  0  0  0  0  0  0  0  0  0  0
    3.7940   -0.1510    0.0000 C   0  0  0  0  0  0  0  0  0  0  0  0
    3.0790    0.2620    0.0000 C   0  0  0  0  0  0  0  0  0  0  0  0
    4.5080    0.2620    0.0000 C   0  0  0  0  0  0  0  0  0  0  0  0
    2.3640   -3.4510    0.0000 C   0  0  0  0  0  0  0  0  0  0  0  0
    1.6500   -2.2140    0.0000 C   0  0  0  0  0  0  0  0  0  0  0  0
    3.7940    1.4990    0.0000 C   0  0  0  0  0  0  0  0  0  0  0  0
    3.0790    1.0860    0.0000 C   0  0  0  0  0  0  0  0  0  0  0  0
    4.5080    1.0860    0.0000 C   0  0  0  0  0  0  0  0  0  0  0  0
    5.2220    3.1490    0.0000 C   0  0  0  0  0  0  0  0  0  0  0  0
  1  3  2  0  0  0  0
  1  4  2  0  0  0  0
  1  6  1  0  0  0  0
  1 18  1  0  0  0  0
  2  7  1  0  0  0  0
  5  8  1  0  0  0  0
  5  9  1  0  0  0  0
  6 15  1  0  0  0  0
  7  8  1  0  0  0  0
  7 10  1  0  0  0  0
  9 13  1  0  0  0  0
  9 14  1  0  0  0  0
 10 11  2  0  0  0  0
 10 12  1  0  0  0  0
 11 16  1  0  0  0  0
 12 17  2  0  0  0  0
 15 16  2  0  0  0  0
 15 17  1  0  0  0  0
M  END
>  <DATABASE_ID>
DB00489

>  <DATABASE_NAME>
drugbank

>  <SMILES>
S(=O)(=O)(Nc1ccc(cc1)C(O)CNC(C)C)C

>  <INCHI_IDENTIFIER>
InChI=1S/C12H20N2O3S/c1-9(2)13-8-12(15)10-4-6-11(7-5-10)14-18(3,16)17/h4-7,9,12-15H,8H2,1-3H3

>  <INCHI_KEY>
InChIKey=ZBMZVLHSJCTVON-UHFFFAOYSA-N

>  <JCHEM_ACCEPTOR_COUNT>
4

>  <JCHEM_AVERAGE_POLARIZABILITY>
29.34075

>  <JCHEM_BIOAVAILABILITY>
1

>  <JCHEM_DONOR_COUNT>
3

>  <JCHEM_EXACT_MASS>
272.11948

>  <JCHEM_FORMAL_CHARGE>
0

>  <JCHEM_FORMULA>
C12H20N2O3S

>  <JCHEM_GHOSE_FILTER>
1

>  <JCHEM_IUPAC>
N-(4-{1-hydroxy-2-[(propan-2-yl)amino]ethyl}phenyl)methanesulfonamide

>  <ALOGPS_LOGP>
0.85000002

>  <JCHEM_LOGP>
-0.395064

>  <ALOGPS_LOGS>
-2.54

>  <JCHEM_MASS>
272.36401

>  <JCHEM_MDDR_LIKE_RULE>
0

>  <JCHEM_NUMBER_OF_RINGS>
1

>  <JCHEM_PHYSIOLOGICAL_CHARGE>
1

>  <JCHEM_PKA>
14.100646

>  <JCHEM_PKA_STRONGEST_ACIDIC>
10.069403

>  <JCHEM_PKA_STRONGEST_BASIC>
9.428215

>  <JCHEM_POLAR_SURFACE_AREA>
78.43

>  <JCHEM_REFRACTIVITY>
71.119102

>  <JCHEM_ROTATABLE_BOND_COUNT>
5

>  <JCHEM_RULE_OF_FIVE>
1

>  <ALOGPS_SOLUBILITY>
7.82e-01 g/l

>  <JCHEM_TRADITIONAL_IUPAC>
sotalol

>  <JCHEM_VEBER_RULE>
0

>  <DRUGBANK_ID>
DB00489

>  <DRUG_GROUPS>
approved

>  <GENERIC_NAME>
Sotalol

>  <SYNONYMS>
Sotalol; Sotalolo; Sotalolum

>  <BRANDS>
Betapace; Biosotal; Cardol; Darob; Darob mite; Hipecor; Loritmik; Rytmobeta; Sorine; Sotacor; Sotagard; Sotalex; Sotapor; Talozin; Tan Shi; Xi An Lin

>  <SALTS>
Sotalol Hydrochloride

$$$$
Buspirone
 OpenBabel02121510022D

 28 31  0  0  0  0  0  0  0  0999 V2000
    9.0750   -1.7860    0.0000 O   0  0  0  0  0  0  0  0  0  0  0  0
    9.0750    1.0720    0.0000 O   0  0  0  0  0  0  0  0  0  0  0  0
    9.0750   -0.3570    0.0000 N   0  0  0  0  0  0  0  0  0  0  0  0
    5.7750    1.0720    0.0000 N   0  0  0  0  0  0  0  0  0  0  0  0
    4.1250    1.0720    0.0000 N   0  0  0  0  0  0  0  0  0  0  0  0
    2.8880    0.3570    0.0000 N   0  0  0  0  0  0  0  0  0  0  0  0
    2.8880    1.7860    0.0000 N   0  0  0  0  0  0  0  0  0  0  0  0
   10.7250   -0.3570    0.0000 C   0  0  0  0  0  0  0  0  0  0  0  0
   11.2100   -1.0250    0.0000 C   0  0  0  0  0  0  0  0  0  0  0  0
   11.2100    0.3100    0.0000 C   0  0  0  0  0  0  0  0  0  0  0  0
   11.9950   -0.7700    0.0000 C   0  0  0  0  0  0  0  0  0  0  0  0
   11.9950    0.0550    0.0000 C   0  0  0  0  0  0  0  0  0  0  0  0
   10.3130   -1.0720    0.0000 C   0  0  0  0  0  0  0  0  0  0  0  0
   10.3130    0.3570    0.0000 C   0  0  0  0  0  0  0  0  0  0  0  0
    9.4880   -1.0720    0.0000 C   0  0  0  0  0  0  0  0  0  0  0  0
    9.4880    0.3570    0.0000 C   0  0  0  0  0  0  0  0  0  0  0  0
    8.2500   -0.3570    0.0000 C   0  0  0  0  0  0  0  0  0  0  0  0
    7.8380    0.3570    0.0000 C   0  0  0  0  0  0  0  0  0  0  0  0
    7.0130    0.3570    0.0000 C   0  0  0  0  0  0  0  0  0  0  0  0
    6.6000    1.0720    0.0000 C   0  0  0  0  0  0  0  0  0  0  0  0
    5.3630    0.3570    0.0000 C   0  0  0  0  0  0  0  0  0  0  0  0
    5.3630    1.7860    0.0000 C   0  0  0  0  0  0  0  0  0  0  0  0
    4.5380    0.3570    0.0000 C   0  0  0  0  0  0  0  0  0  0  0  0
    4.5380    1.7860    0.0000 C   0  0  0  0  0  0  0  0  0  0  0  0
    3.3000    1.0720    0.0000 C   0  0  0  0  0  0  0  0  0  0  0  0
    2.0620    0.3570    0.0000 C   0  0  0  0  0  0  0  0  0  0  0  0
    2.0620    1.7860    0.0000 C   0  0  0  0  0  0  0  0  0  0  0  0
    1.6500    1.0720    0.0000 C   0  0  0  0  0  0  0  0  0  0  0  0
  1 15  2  0  0  0  0
  2 16  2  0  0  0  0
  3 15  1  0  0  0  0
  3 16  1  0  0  0  0
  3 17  1  0  0  0  0
  4 20  1  0  0  0  0
  4 21  1  0  0  0  0
  4 22  1  0  0  0  0
  5 23  1  0  0  0  0
  5 24  1  0  0  0  0
  5 25  1  0  0  0  0
  6 25  2  0  0  0  0
  6 26  1  0  0  0  0
  7 25  1  0  0  0  0
  7 27  2  0  0  0  0
  8  9  1  0  0  0  0
  8 10  1  0  0  0  0
  8 13  1  0  0  0  0
  8 14  1  0  0  0  0
  9 11  1  0  0  0  0
 10 12  1  0  0  0  0
 11 12  1  0  0  0  0
 13 15  1  0  0  0  0
 14 16  1  0  0  0  0
 17 18  1  0  0  0  0
 18 19  1  0  0  0  0
 19 20  1  0  0  0  0
 21 23  1  0  0  0  0
 22 24  1  0  0  0  0
 26 28  2  0  0  0  0
 27 28  1  0  0  0  0
M  END
>  <DATABASE_ID>
DB00490

>  <DATABASE_NAME>
drugbank

>  <SMILES>
O=C1N(CCCCN2CCN(CC2)c2ncccn2)C(=O)CC2(C1)CCCC2

>  <INCHI_IDENTIFIER>
InChI=1S/C21H31N5O2/c27-18-16-21(6-1-2-7-21)17-19(28)26(18)11-4-3-10-24-12-14-25(15-13-24)20-22-8-5-9-23-20/h5,8-9H,1-4,6-7,10-17H2

>  <INCHI_KEY>
InChIKey=QWCRAEMEVRGPNT-UHFFFAOYSA-N

>  <JCHEM_ACCEPTOR_COUNT>
6

>  <JCHEM_AVERAGE_POLARIZABILITY>
44.118835

>  <JCHEM_BIOAVAILABILITY>
1

>  <JCHEM_DONOR_COUNT>
0

>  <JCHEM_EXACT_MASS>
385.24777

>  <JCHEM_FORMAL_CHARGE>
0

>  <JCHEM_FORMULA>
C21H31N5O2

>  <JCHEM_GHOSE_FILTER>
1

>  <JCHEM_IUPAC>
8-{4-[4-(pyrimidin-2-yl)piperazin-1-yl]butyl}-8-azaspiro[4.5]decane-7,9-dione

>  <ALOGPS_LOGP>
1.95

>  <JCHEM_LOGP>
1.7767332

>  <ALOGPS_LOGS>
-2.8199999

>  <JCHEM_MASS>
385.50311

>  <JCHEM_MDDR_LIKE_RULE>
1

>  <JCHEM_NUMBER_OF_RINGS>
4

>  <JCHEM_PHYSIOLOGICAL_CHARGE>
1

>  <JCHEM_PKA_STRONGEST_BASIC>
7.6205616

>  <JCHEM_POLAR_SURFACE_AREA>
69.639999

>  <JCHEM_REFRACTIVITY>
108.8906

>  <JCHEM_ROTATABLE_BOND_COUNT>
6

>  <JCHEM_RULE_OF_FIVE>
1

>  <ALOGPS_SOLUBILITY>
5.88e-01 g/l

>  <JCHEM_TRADITIONAL_IUPAC>
buspirone

>  <JCHEM_VEBER_RULE>
0

>  <DRUGBANK_ID>
DB00490

>  <DRUG_GROUPS>
approved; investigational

>  <GENERIC_NAME>
Buspirone

>  <SYNONYMS>
Buspiron; Buspirona; Buspirone; Buspironum

>  <BRANDS>
Ansial; Anxiron; Anxut; Bespar; Buscalm; Busp; Buspar; Buspon; Dalpas; Epsilat; Pasrin; Spamilan

>  <SALTS>
Buspirone Hydrochloride

$$$$
Miglitol
 OpenBabel02121510022D

 14 14  0  0  1  0  0  0  0  0999 V2000
    4.9510   -1.4440    0.0000 O   0  0  0  0  0  0  0  0  0  0  0  0
    3.5220   -2.2690    0.0000 O   0  0  0  0  0  0  0  0  0  0  0  0
    2.0930   -1.4440    0.0000 O   0  0  0  0  0  0  0  0  0  0  0  0
    4.9510    1.0310    0.0000 O   0  0  0  0  0  0  0  0  0  0  0  0
    2.8080    2.2690    0.0000 O   0  0  0  0  0  0  0  0  0  0  0  0
    3.5220    0.2060    0.0000 N   0  0  0  0  0  0  0  0  0  0  0  0
    4.2360   -0.2060    0.0000 C   0  0  1  0  0  0  0  0  0  0  0  0
    4.2360   -1.0310    0.0000 C   0  0  2  0  0  0  0  0  0  0  0  0
    3.5220   -1.4440    0.0000 C   0  0  1  0  0  0  0  0  0  0  0  0
    2.8080   -1.0310    0.0000 C   0  0  2  0  0  0  0  0  0  0  0  0
    2.8080   -0.2060    0.0000 C   0  0  0  0  0  0  0  0  0  0  0  0
    4.9510    0.2060    0.0000 C   0  0  0  0  0  0  0  0  0  0  0  0
    3.5220    1.0310    0.0000 C   0  0  0  0  0  0  0  0  0  0  0  0
    2.8080    1.4440    0.0000 C   0  0  0  0  0  0  0  0  0  0  0  0
  4 12  1  0  0  0  0
  5 14  1  0  0  0  0
  6  7  1  0  0  0  0
  6 11  1  0  0  0  0
  6 13  1  0  0  0  0
  7  8  1  0  0  0  0
  7 12  1  6  0  0  0
  8  1  1  1  0  0  0
  8  9  1  0  0  0  0
  9  2  1  6  0  0  0
  9 10  1  0  0  0  0
 10  3  1  1  0  0  0
 10 11  1  0  0  0  0
 13 14  1  0  0  0  0
M  END
>  <DATABASE_ID>
DB00491

>  <DATABASE_NAME>
drugbank

>  <SMILES>
O[C@H]1[C@H](O)[C@@H](O)CN(CCO)[C@@H]1CO

>  <INCHI_IDENTIFIER>
InChI=1S/C8H17NO5/c10-2-1-9-3-6(12)8(14)7(13)5(9)4-11/h5-8,10-14H,1-4H2/t5-,6+,7-,8-/m1/s1

>  <INCHI_KEY>
InChIKey=IBAQFPQHRJAVAV-ULAWRXDQSA-N

>  <JCHEM_ACCEPTOR_COUNT>
6

>  <JCHEM_AVERAGE_POLARIZABILITY>
20.813484

>  <JCHEM_BIOAVAILABILITY>
1

>  <JCHEM_DONOR_COUNT>
5

>  <JCHEM_EXACT_MASS>
207.11067

>  <JCHEM_FORMAL_CHARGE>
0

>  <JCHEM_FORMULA>
C8H17NO5

>  <JCHEM_GHOSE_FILTER>
0

>  <JCHEM_IUPAC>
(2R,3R,4R,5S)-1-(2-hydroxyethyl)-2-(hydroxymethyl)piperidine-3,4,5-triol

>  <ALOGPS_LOGP>
-2.3

>  <JCHEM_LOGP>
-3.1927972

>  <ALOGPS_LOGS>
0.47

>  <JCHEM_MASS>
207.2243

>  <JCHEM_MDDR_LIKE_RULE>
0

>  <JCHEM_NUMBER_OF_RINGS>
1

>  <JCHEM_PHYSIOLOGICAL_CHARGE>
1

>  <JCHEM_PKA>
14.021652

>  <JCHEM_PKA_STRONGEST_ACIDIC>
12.901322

>  <JCHEM_PKA_STRONGEST_BASIC>
7.5977597

>  <JCHEM_POLAR_SURFACE_AREA>
104.39

>  <JCHEM_REFRACTIVITY>
48.1614

>  <JCHEM_ROTATABLE_BOND_COUNT>
3

>  <JCHEM_RULE_OF_FIVE>
1

>  <ALOGPS_SOLUBILITY>
6.10e+02 g/l

>  <JCHEM_TRADITIONAL_IUPAC>
miglitol

>  <JCHEM_VEBER_RULE>
0

>  <DRUGBANK_ID>
DB00491

>  <DRUG_GROUPS>
approved

>  <GENERIC_NAME>
Miglitol

>  <SYNONYMS>
Miglitol; Miglitolum

>  <BRANDS>
Diaban; Diamig; Diaset; Diastabol; Elitox; Euglitol; Glycet; Glyset; Laiping; Migbose; Miglit; Mignar; Migtor; Misobit; Plumarol; Seibule

$$$$
Fosinopril
 OpenBabel02121510022D

 39 41  0  0  1  0  0  0  0  0999 V2000
    5.8710    1.5820    0.0000 P   0  0  3  0  0  0  0  0  0  0  0  0
    1.9510    0.9140    0.0000 O   0  0  0  0  0  0  0  0  0  0  0  0
    4.2300    1.7540    0.0000 O   0  0  0  0  0  0  0  0  0  0  0  0
    3.1070    1.7540    0.0000 O   0  0  0  0  0  0  0  0  0  0  0  0
    6.3560    2.2490    0.0000 O   0  0  0  0  0  0  0  0  0  0  0  0
    5.2040    2.0670    0.0000 O   0  0  0  0  0  0  0  0  0  0  0  0
    7.6620    2.8300    0.0000 O   0  0  0  0  0  0  0  0  0  0  0  0
    8.8180    1.9900    0.0000 O   0  0  0  0  0  0  0  0  0  0  0  0
    4.0810    0.3330    0.0000 N   0  0  0  0  0  0  0  0  0  0  0  0
    3.6690   -0.9370    0.0000 C   0  0  2  0  0  0  0  0  0  0  0  0
    3.6690   -1.7620    0.0000 C   0  0  0  0  0  0  0  0  0  0  0  0
    3.0010   -0.4520    0.0000 C   0  0  0  0  0  0  0  0  0  0  0  0
    4.3360   -0.4520    0.0000 C   0  0  0  0  0  0  0  0  0  0  0  0
    2.9540   -2.1740    0.0000 C   0  0  0  0  0  0  0  0  0  0  0  0
    4.3830   -2.1740    0.0000 C   0  0  0  0  0  0  0  0  0  0  0  0
    3.2560    0.3330    0.0000 C   0  0  1  0  0  0  0  0  0  0  0  0
    2.9540   -2.9990    0.0000 C   0  0  0  0  0  0  0  0  0  0  0  0
    4.3830   -2.9990    0.0000 C   0  0  0  0  0  0  0  0  0  0  0  0
    3.6690   -3.4120    0.0000 C   0  0  0  0  0  0  0  0  0  0  0  0
    4.5660    1.0000    0.0000 C   0  0  0  0  0  0  0  0  0  0  0  0
    2.7710    1.0000    0.0000 C   0  0  0  0  0  0  0  0  0  0  0  0
    5.3860    0.9140    0.0000 C   0  0  0  0  0  0  0  0  0  0  0  0
    6.5390    1.0970    0.0000 C   0  0  0  0  0  0  0  0  0  0  0  0
    6.4530    0.2760    0.0000 C   0  0  0  0  0  0  0  0  0  0  0  0
    7.1770    2.1630    0.0000 C   0  0  3  0  0  0  0  0  0  0  0  0
    7.1200   -0.2090    0.0000 C   0  0  0  0  0  0  0  0  0  0  0  0
    7.5120    1.4090    0.0000 C   0  0  0  0  0  0  0  0  0  0  0  0
    7.0340   -1.0290    0.0000 C   0  0  0  0  0  0  0  0  0  0  0  0
    7.0280    0.7420    0.0000 C   0  0  0  0  0  0  0  0  0  0  0  0
    8.3330    1.3230    0.0000 C   0  0  0  0  0  0  0  0  0  0  0  0
    7.7010   -1.5140    0.0000 C   0  0  0  0  0  0  0  0  0  0  0  0
    8.4820    2.7440    0.0000 C   0  0  0  0  0  0  0  0  0  0  0  0
    8.4550   -1.1780    0.0000 C   0  0  0  0  0  0  0  0  0  0  0  0
    7.6150   -2.3340    0.0000 C   0  0  0  0  0  0  0  0  0  0  0  0
    8.9670    3.4120    0.0000 C   0  0  0  0  0  0  0  0  0  0  0  0
    9.1220   -1.6640    0.0000 C   0  0  0  0  0  0  0  0  0  0  0  0
    8.2820   -2.8200    0.0000 C   0  0  0  0  0  0  0  0  0  0  0  0
    9.0360   -2.4840    0.0000 C   0  0  0  0  0  0  0  0  0  0  0  0
    9.7880    3.3250    0.0000 C   0  0  0  0  0  0  0  0  0  0  0  0
  1  5  1  0  0  0  0
  1  6  2  0  0  0  0
  1 22  1  0  0  0  0
  1 23  1  0  0  0  0
  2 21  1  0  0  0  0
  3 20  2  0  0  0  0
  4 21  2  0  0  0  0
  5 25  1  0  0  0  0
  7 25  1  0  0  0  0
  7 32  1  0  0  0  0
  8 32  2  0  0  0  0
  9 13  1  0  0  0  0
  9 16  1  0  0  0  0
  9 20  1  0  0  0  0
 10 11  1  6  0  0  0
 10 12  1  0  0  0  0
 10 13  1  0  0  0  0
 11 14  1  0  0  0  0
 11 15  1  0  0  0  0
 12 16  1  0  0  0  0
 14 17  1  0  0  0  0
 15 18  1  0  0  0  0
 16 21  1  1  0  0  0
 17 19  1  0  0  0  0
 18 19  1  0  0  0  0
 20 22  1  0  0  0  0
 23 24  1  0  0  0  0
 24 26  1  0  0  0  0
 25 27  1  0  0  0  0
 26 28  1  0  0  0  0
 27 29  1  0  0  0  0
 27 30  1  0  0  0  0
 28 31  1  0  0  0  0
 31 33  2  0  0  0  0
 31 34  1  0  0  0  0
 32 35  1  0  0  0  0
 33 36  1  0  0  0  0
 34 37  2  0  0  0  0
 35 39  1  0  0  0  0
 36 38  2  0  0  0  0
 37 38  1  0  0  0  0
M  END
>  <DATABASE_ID>
DB00492

>  <DATABASE_NAME>
drugbank

>  <SMILES>
P(OC(OC(=O)CC)C(C)C)(=O)(CCCCc1ccccc1)CC(=O)N1C[C@@H](C[C@H]1C(O)=O)C1CCCCC1

>  <INCHI_IDENTIFIER>
InChI=1S/C30H46NO7P/c1-4-28(33)37-30(22(2)3)38-39(36,18-12-11-15-23-13-7-5-8-14-23)21-27(32)31-20-25(19-26(31)29(34)35)24-16-9-6-10-17-24/h5,7-8,13-14,22,24-26,30H,4,6,9-12,15-21H2,1-3H3,(H,34,35)/t25-,26+,30?,39?/m1/s1

>  <INCHI_KEY>
InChIKey=BIDNLKIUORFRQP-FKDWWROVSA-N

>  <JCHEM_ACCEPTOR_COUNT>
5

>  <JCHEM_AVERAGE_POLARIZABILITY>
61.170353

>  <JCHEM_BIOAVAILABILITY>
0

>  <JCHEM_DONOR_COUNT>
1

>  <JCHEM_EXACT_MASS>
563.30121

>  <JCHEM_FORMAL_CHARGE>
0

>  <JCHEM_FORMULA>
C30H46NO7P

>  <JCHEM_GHOSE_FILTER>
0

>  <JCHEM_IUPAC>
(2S,4S)-4-cyclohexyl-1-(2-{[2-methyl-1-(propanoyloxy)propoxy](4-phenylbutyl)phosphoryl}acetyl)pyrrolidine-2-carboxylic acid

>  <ALOGPS_LOGP>
4.71

>  <JCHEM_LOGP>
5.4857998

>  <ALOGPS_LOGS>
-5.75

>  <JCHEM_MASS>
563.66248

>  <JCHEM_MDDR_LIKE_RULE>
1

>  <JCHEM_NUMBER_OF_RINGS>
3

>  <JCHEM_PHYSIOLOGICAL_CHARGE>
-1

>  <JCHEM_PKA>
10.381608

>  <JCHEM_PKA_STRONGEST_ACIDIC>
3.8701429

>  <JCHEM_PKA_STRONGEST_BASIC>
-4.4289999

>  <JCHEM_POLAR_SURFACE_AREA>
110.21

>  <JCHEM_REFRACTIVITY>
149.1196

>  <JCHEM_ROTATABLE_BOND_COUNT>
15

>  <JCHEM_RULE_OF_FIVE>
0

>  <ALOGPS_SOLUBILITY>
1.01e-03 g/l

>  <JCHEM_TRADITIONAL_IUPAC>
(2S,4S)-4-cyclohexyl-1-{2-[2-methyl-1-(propanoyloxy)propoxy(4-phenylbutyl)phosphoryl]acetyl}pyrrolidine-2-carboxylic acid

>  <JCHEM_VEBER_RULE>
0

>  <DRUGBANK_ID>
DB00492

>  <DRUG_GROUPS>
approved

>  <GENERIC_NAME>
Fosinopril

>  <BRANDS>
Acecor; Monopril; Staril

>  <SALTS>
Fosinopril Sodium

$$$$
Entacapone
 OpenBabel02121510022D

 22 22  0  0  0  0  0  0  0  0999 V2000
    3.7940    1.9840    0.0000 O   0  0  0  0  0  0  0  0  0  0  0  0
    5.2220   -2.1410    0.0000 O   0  0  0  0  0  0  0  0  0  0  0  0
    3.7940   -2.9660    0.0000 O   0  0  0  0  0  0  0  0  0  0  0  0
    1.6500   -1.7280    0.0000 O   0  5  0  0  0  0  0  0  0  0  0  0
    2.3640   -2.9660    0.0000 O   0  0  0  0  0  0  0  0  0  0  0  0
    5.2220    1.9840    0.0000 N   0  0  0  0  0  0  0  0  0  0  0  0
    2.3640   -2.1410    0.0000 N   0  3  0  0  0  0  0  0  0  0  0  0
    5.9370   -0.0780    0.0000 N   0  0  0  0  0  0  0  0  0  0  0  0
    5.2220    2.8090    0.0000 C   0  0  0  0  0  0  0  0  0  0  0  0
    5.9370    1.5720    0.0000 C   0  0  0  0  0  0  0  0  0  0  0  0
    4.5080    1.5720    0.0000 C   0  0  0  0  0  0  0  0  0  0  0  0
    5.9370    3.2220    0.0000 C   0  0  0  0  0  0  0  0  0  0  0  0
    6.6520    1.9840    0.0000 C   0  0  0  0  0  0  0  0  0  0  0  0
    3.7940   -0.4910    0.0000 C   0  0  0  0  0  0  0  0  0  0  0  0
    4.5080    0.7470    0.0000 C   0  0  0  0  0  0  0  0  0  0  0  0
    3.7940    0.3340    0.0000 C   0  0  0  0  0  0  0  0  0  0  0  0
    3.0790   -0.9030    0.0000 C   0  0  0  0  0  0  0  0  0  0  0  0
    4.5080   -0.9030    0.0000 C   0  0  0  0  0  0  0  0  0  0  0  0
    3.0790   -1.7280    0.0000 C   0  0  0  0  0  0  0  0  0  0  0  0
    4.5080   -1.7280    0.0000 C   0  0  0  0  0  0  0  0  0  0  0  0
    3.7940   -2.1410    0.0000 C   0  0  0  0  0  0  0  0  0  0  0  0
    5.2220    0.3340    0.0000 C   0  0  0  0  0  0  0  0  0  0  0  0
  1 11  2  0  0  0  0
  2 20  1  0  0  0  0
  3 21  1  0  0  0  0
  4  7  1  0  0  0  0
  5  7  2  0  0  0  0
  6  9  1  0  0  0  0
  6 10  1  0  0  0  0
  6 11  1  0  0  0  0
  7 19  1  0  0  0  0
  8 22  3  0  0  0  0
  9 12  1  0  0  0  0
 10 13  1  0  0  0  0
 11 15  1  0  0  0  0
 14 16  1  0  0  0  0
 14 17  2  0  0  0  0
 14 18  1  0  0  0  0
 15 16  2  0  0  0  0
 15 22  1  0  0  0  0
 17 19  1  0  0  0  0
 18 20  2  0  0  0  0
 19 21  2  0  0  0  0
 20 21  1  0  0  0  0
M  CHG  2   4  -1   7   1
M  END
>  <DATABASE_ID>
DB00494

>  <DATABASE_NAME>
drugbank

>  <SMILES>
Oc1c([N+](=O)[O-])cc(cc1O)\C=C(\C(=O)N(CC)CC)/C#N

>  <INCHI_IDENTIFIER>
InChI=1S/C14H15N3O5/c1-3-16(4-2)14(20)10(8-15)5-9-6-11(17(21)22)13(19)12(18)7-9/h5-7,18-19H,3-4H2,1-2H3/b10-5+

>  <INCHI_KEY>
InChIKey=JRURYQJSLYLRLN-BJMVGYQFSA-N

>  <JCHEM_ACCEPTOR_COUNT>
6

>  <JCHEM_AVERAGE_POLARIZABILITY>
29.482544

>  <JCHEM_BIOAVAILABILITY>
1

>  <JCHEM_DONOR_COUNT>
2

>  <JCHEM_EXACT_MASS>
305.10117

>  <JCHEM_FORMAL_CHARGE>
0

>  <JCHEM_FORMULA>
C14H15N3O5

>  <JCHEM_GHOSE_FILTER>
1

>  <JCHEM_IUPAC>
(2E)-2-cyano-3-(3,4-dihydroxy-5-nitrophenyl)-N,N-diethylprop-2-enamide

>  <ALOGPS_LOGP>
2.5

>  <JCHEM_LOGP>
1.6348238

>  <ALOGPS_LOGS>
-3.5799999

>  <JCHEM_MASS>
305.28601

>  <JCHEM_MDDR_LIKE_RULE>
0

>  <JCHEM_NUMBER_OF_RINGS>
1

>  <JCHEM_PHYSIOLOGICAL_CHARGE>
-1

>  <JCHEM_PKA>
10.717542

>  <JCHEM_PKA_STRONGEST_ACIDIC>
5.6837468

>  <JCHEM_PKA_STRONGEST_BASIC>
-0.035749312

>  <JCHEM_POLAR_SURFACE_AREA>
130.38

>  <JCHEM_REFRACTIVITY>
80.512802

>  <JCHEM_ROTATABLE_BOND_COUNT>
5

>  <JCHEM_RULE_OF_FIVE>
1

>  <ALOGPS_SOLUBILITY>
7.97e-02 g/l

>  <JCHEM_TRADITIONAL_IUPAC>
entacapone

>  <JCHEM_VEBER_RULE>
0

>  <DRUGBANK_ID>
DB00494

>  <DRUG_GROUPS>
approved; investigational

>  <GENERIC_NAME>
Entacapone

>  <SYNONYMS>
Entacapona; Entacapone; Entacaponum

>  <BRANDS>
Anxopone; Comtade; Comtan; Comtess

$$$$
Zidovudine
 OpenBabel02121510022D

 19 20  0  0  1  0  0  0  0  0999 V2000
    4.8560   -1.0030    0.0000 O   0  0  0  0  0  0  0  0  0  0  0  0
    5.9060   -2.3680    0.0000 O   0  0  0  0  0  0  0  0  0  0  0  0
    2.7600    0.3070    0.0000 O   0  0  0  0  0  0  0  0  0  0  0  0
    4.1880    2.7820    0.0000 O   0  0  0  0  0  0  0  0  0  0  0  0
    4.1880    0.3070    0.0000 N   0  0  0  0  0  0  0  0  0  0  0  0
    3.2910   -2.4550    0.0000 N   0  0  0  0  0  0  0  0  0  0  0  0
    3.4740    1.5450    0.0000 N   0  0  0  0  0  0  0  0  0  0  0  0
    2.4700   -2.3680    0.0000 N   0  3  0  0  0  0  0  0  0  0  0  0
    1.6500   -2.2820    0.0000 N   0  5  0  0  0  0  0  0  0  0  0  0
    3.7760   -1.7870    0.0000 C   0  0  1  0  0  0  0  0  0  0  0  0
    4.1880   -0.5180    0.0000 C   0  0  1  0  0  0  0  0  0  0  0  0
    3.5210   -1.0030    0.0000 C   0  0  0  0  0  0  0  0  0  0  0  0
    4.6010   -1.7870    0.0000 C   0  0  1  0  0  0  0  0  0  0  0  0
    5.0860   -2.4550    0.0000 C   0  0  0  0  0  0  0  0  0  0  0  0
    4.9030    0.7200    0.0000 C   0  0  0  0  0  0  0  0  0  0  0  0
    3.4740    0.7200    0.0000 C   0  0  0  0  0  0  0  0  0  0  0  0
    4.9030    1.5450    0.0000 C   0  0  0  0  0  0  0  0  0  0  0  0
    4.1880    1.9570    0.0000 C   0  0  0  0  0  0  0  0  0  0  0  0
    5.6170    1.9570    0.0000 C   0  0  0  0  0  0  0  0  0  0  0  0
  1 11  1  0  0  0  0
  1 13  1  0  0  0  0
  2 14  1  0  0  0  0
  3 16  2  0  0  0  0
  4 18  2  0  0  0  0
  5 15  1  0  0  0  0
  5 16  1  0  0  0  0
  6  8  2  0  0  0  0
  7 16  1  0  0  0  0
  7 18  1  0  0  0  0
  8  9  2  0  0  0  0
 10  6  1  1  0  0  0
 10 12  1  0  0  0  0
 10 13  1  0  0  0  0
 11  5  1  6  0  0  0
 11 12  1  0  0  0  0
 13 14  1  6  0  0  0
 15 17  2  0  0  0  0
 17 18  1  0  0  0  0
 17 19  1  0  0  0  0
M  CHG  2   8   1   9  -1
M  END
>  <DATABASE_ID>
DB00495

>  <DATABASE_NAME>
drugbank

>  <SMILES>
O1[C@H](CO)[C@@H](N=[N+]=[N-])C[C@@H]1N1C=C(C)C(=O)NC1=O

>  <INCHI_IDENTIFIER>
InChI=1S/C10H13N5O4/c1-5-3-15(10(18)12-9(5)17)8-2-6(13-14-11)7(4-16)19-8/h3,6-8,16H,2,4H2,1H3,(H,12,17,18)/t6-,7+,8+/m0/s1

>  <INCHI_KEY>
InChIKey=HBOMLICNUCNMMY-XLPZGREQSA-N

>  <JCHEM_ACCEPTOR_COUNT>
6

>  <JCHEM_AVERAGE_POLARIZABILITY>
24.92898

>  <JCHEM_BIOAVAILABILITY>
1

>  <JCHEM_DONOR_COUNT>
2

>  <JCHEM_EXACT_MASS>
267.09674

>  <JCHEM_FORMAL_CHARGE>
0

>  <JCHEM_FORMULA>
C10H13N5O4

>  <JCHEM_GHOSE_FILTER>
1

>  <JCHEM_IUPAC>
1-[(2R,4S,5S)-4-azido-5-(hydroxymethyl)oxolan-2-yl]-5-methyl-1,2,3,4-tetrahydropyrimidine-2,4-dione

>  <ALOGPS_LOGP>
-0.1

>  <JCHEM_LOGP>
-0.29870915

>  <ALOGPS_LOGS>
-1.21

>  <JCHEM_MASS>
267.2413

>  <JCHEM_MDDR_LIKE_RULE>
0

>  <JCHEM_NUMBER_OF_RINGS>
2

>  <JCHEM_PHYSIOLOGICAL_CHARGE>
0

>  <JCHEM_PKA>
9.9604177

>  <JCHEM_PKA_STRONGEST_ACIDIC>
9.9604158

>  <JCHEM_PKA_STRONGEST_BASIC>
-2.9769294

>  <JCHEM_POLAR_SURFACE_AREA>
108.3

>  <JCHEM_REFRACTIVITY>
61.704498

>  <JCHEM_ROTATABLE_BOND_COUNT>
3

>  <JCHEM_RULE_OF_FIVE>
1

>  <ALOGPS_SOLUBILITY>
1.63e+01 g/l

>  <JCHEM_TRADITIONAL_IUPAC>
zidovudine

>  <JCHEM_VEBER_RULE>
0

>  <DRUGBANK_ID>
DB00495

>  <DRUG_GROUPS>
approved

>  <GENERIC_NAME>
Zidovudine

>  <SYNONYMS>
Azidothymidine; AZT; ZDV

>  <BRANDS>
Retrovir

$$$$
Darifenacin
 OpenBabel02121510022D

 32 36  0  0  1  0  0  0  0  0999 V2000
    3.2720    1.3930    0.0000 O   0  0  0  0  0  0  0  0  0  0  0  0
   10.5910   -1.4440    0.0000 O   0  0  0  0  0  0  0  0  0  0  0  0
    6.2380    0.0460    0.0000 N   0  0  0  0  0  0  0  0  0  0  0  0
    4.3610    1.8110    0.0000 N   0  0  0  0  0  0  0  0  0  0  0  0
    4.9320    0.3230    0.0000 C   0  0  2  0  0  0  0  0  0  0  0  0
    4.1120    0.2370    0.0000 C   0  0  0  0  0  0  0  0  0  0  0  0
    5.3450    1.0380    0.0000 C   0  0  0  0  0  0  0  0  0  0  0  0
    5.4840   -0.2900    0.0000 C   0  0  0  0  0  0  0  0  0  0  0  0
    6.1520    0.8660    0.0000 C   0  0  0  0  0  0  0  0  0  0  0  0
    6.9520   -0.3670    0.0000 C   0  0  0  0  0  0  0  0  0  0  0  0
    3.2910    0.1500    0.0000 C   0  0  0  0  0  0  0  0  0  0  0  0
    4.1980   -0.5840    0.0000 C   0  0  0  0  0  0  0  0  0  0  0  0
    4.0250    1.0570    0.0000 C   0  0  0  0  0  0  0  0  0  0  0  0
    7.6670    0.0460    0.0000 C   0  0  0  0  0  0  0  0  0  0  0  0
    2.8060    0.8180    0.0000 C   0  0  0  0  0  0  0  0  0  0  0  0
    3.5300   -1.0690    0.0000 C   0  0  0  0  0  0  0  0  0  0  0  0
    2.9560   -0.6030    0.0000 C   0  0  0  0  0  0  0  0  0  0  0  0
    4.9510   -0.9190    0.0000 C   0  0  0  0  0  0  0  0  0  0  0  0
    8.3810   -0.3670    0.0000 C   0  0  0  0  0  0  0  0  0  0  0  0
    1.9860    0.7320    0.0000 C   0  0  0  0  0  0  0  0  0  0  0  0
    3.6160   -1.8890    0.0000 C   0  0  0  0  0  0  0  0  0  0  0  0
    2.1350   -0.6890    0.0000 C   0  0  0  0  0  0  0  0  0  0  0  0
    5.0380   -1.7400    0.0000 C   0  0  0  0  0  0  0  0  0  0  0  0
    9.0960    0.0460    0.0000 C   0  0  0  0  0  0  0  0  0  0  0  0
    8.3810   -1.1920    0.0000 C   0  0  0  0  0  0  0  0  0  0  0  0
    1.6500   -0.0220    0.0000 C   0  0  0  0  0  0  0  0  0  0  0  0
    4.3700   -2.2250    0.0000 C   0  0  0  0  0  0  0  0  0  0  0  0
    9.8100   -0.3670    0.0000 C   0  0  0  0  0  0  0  0  0  0  0  0
    9.8100   -1.1920    0.0000 C   0  0  0  0  0  0  0  0  0  0  0  0
   10.5910   -0.1160    0.0000 C   0  0  0  0  0  0  0  0  0  0  0  0
    9.0960   -1.6050    0.0000 C   0  0  0  0  0  0  0  0  0  0  0  0
   11.0720   -0.7800    0.0000 C   0  0  0  0  0  0  0  0  0  0  0  0
  1 13  2  0  0  0  0
  2 29  1  0  0  0  0
  2 32  1  0  0  0  0
  3  8  1  0  0  0  0
  3  9  1  0  0  0  0
  3 10  1  0  0  0  0
  4 13  1  0  0  0  0
  5  6  1  6  0  0  0
  5  7  1  0  0  0  0
  5  8  1  0  0  0  0
  6 11  1  0  0  0  0
  6 12  1  0  0  0  0
  6 13  1  0  0  0  0
  7  9  1  0  0  0  0
 10 14  1  0  0  0  0
 11 15  2  0  0  0  0
 11 17  1  0  0  0  0
 12 16  2  0  0  0  0
 12 18  1  0  0  0  0
 14 19  1  0  0  0  0
 15 20  1  0  0  0  0
 16 21  1  0  0  0  0
 17 22  2  0  0  0  0
 18 23  2  0  0  0  0
 19 24  1  0  0  0  0
 19 25  2  0  0  0  0
 20 26  2  0  0  0  0
 21 27  2  0  0  0  0
 22 26  1  0  0  0  0
 23 27  1  0  0  0  0
 24 28  2  0  0  0  0
 25 31  1  0  0  0  0
 28 29  1  0  0  0  0
 28 30  1  0  0  0  0
 29 31  2  0  0  0  0
 30 32  1  0  0  0  0
M  END
>  <DATABASE_ID>
DB00496

>  <DATABASE_NAME>
drugbank

>  <SMILES>
O1CCc2cc(ccc12)CCN1C[C@@H](CC1)C(C(=O)N)(c1ccccc1)c1ccccc1

>  <INCHI_IDENTIFIER>
InChI=1S/C28H30N2O2/c29-27(31)28(23-7-3-1-4-8-23,24-9-5-2-6-10-24)25-14-17-30(20-25)16-13-21-11-12-26-22(19-21)15-18-32-26/h1-12,19,25H,13-18,20H2,(H2,29,31)/t25-/m1/s1

>  <INCHI_KEY>
InChIKey=HXGBXQDTNZMWGS-RUZDIDTESA-N

>  <JCHEM_ACCEPTOR_COUNT>
3

>  <JCHEM_AVERAGE_POLARIZABILITY>
48.541763

>  <JCHEM_BIOAVAILABILITY>
1

>  <JCHEM_DONOR_COUNT>
1

>  <JCHEM_EXACT_MASS>
426.23074

>  <JCHEM_FORMAL_CHARGE>
0

>  <JCHEM_FORMULA>
C28H30N2O2

>  <JCHEM_GHOSE_FILTER>
1

>  <JCHEM_IUPAC>
2-[(3S)-1-[2-(2,3-dihydro-1-benzofuran-5-yl)ethyl]pyrrolidin-3-yl]-2,2-diphenylacetamide

>  <ALOGPS_LOGP>
4.3499999

>  <JCHEM_LOGP>
4.5402842

>  <ALOGPS_LOGS>
-6.1599998

>  <JCHEM_MASS>
426.54999

>  <JCHEM_MDDR_LIKE_RULE>
1

>  <JCHEM_NUMBER_OF_RINGS>
5

>  <JCHEM_PHYSIOLOGICAL_CHARGE>
1

>  <JCHEM_PKA_STRONGEST_ACIDIC>
16.212147

>  <JCHEM_PKA_STRONGEST_BASIC>
10.108035

>  <JCHEM_POLAR_SURFACE_AREA>
55.560001

>  <JCHEM_REFRACTIVITY>
128.37469

>  <JCHEM_ROTATABLE_BOND_COUNT>
7

>  <JCHEM_RULE_OF_FIVE>
1

>  <ALOGPS_SOLUBILITY>
2.98e-04 g/l

>  <JCHEM_TRADITIONAL_IUPAC>
darifenacin

>  <JCHEM_VEBER_RULE>
0

>  <DRUGBANK_ID>
DB00496

>  <DRUG_GROUPS>
approved; investigational

>  <GENERIC_NAME>
Darifenacin

>  <SYNONYMS>
Darifenacin; Darifenacina; Darifénacine; Darifenacinum

>  <BRANDS>
Emselex; Enablex; Xelena

>  <SALTS>
Darifenacin Hydrobromide

$$$$
Oxycodone
 OpenBabel02121510022D

 25 29  0  0  1  0  0  0  0  0999 V2000
    1.9360   -0.3880    0.0000 O   0  0  0  0  0  0  0  0  0  0  0  0
    4.4730   -1.9230    0.0000 O   0  0  0  0  0  0  0  0  0  0  0  0
    1.7350   -2.5180    0.0000 O   0  0  0  0  0  0  0  0  0  0  0  0
    1.7350    1.6500    0.0000 O   0  0  0  0  0  0  0  0  0  0  0  0
    5.3440   -1.2590    0.0000 N   0  0  0  0  0  0  0  0  0  0  0  0
    3.2010   -0.8460    0.0000 C   0  0  1  0  0  0  0  0  0  0  0  0
    3.9150   -1.2590    0.0000 C   0  0  1  0  0  0  0  0  0  0  0  0
    4.6300   -0.8460    0.0000 C   0  0  1  0  0  0  0  0  0  0  0  0
    2.4860   -1.2590    0.0000 C   0  0  2  0  0  0  0  0  0  0  0  0
    3.6770   -0.2410    0.0000 C   0  0  0  0  0  0  0  0  0  0  0  0
    3.2010   -0.0210    0.0000 C   0  0  0  0  0  0  0  0  0  0  0  0
    3.9150   -2.0840    0.0000 C   0  0  0  0  0  0  0  0  0  0  0  0
    4.6300   -0.0210    0.0000 C   0  0  0  0  0  0  0  0  0  0  0  0
    4.8510   -0.2410    0.0000 C   0  0  0  0  0  0  0  0  0  0  0  0
    3.9150    0.3910    0.0000 C   0  0  0  0  0  0  0  0  0  0  0  0
    3.2010   -2.4960    0.0000 C   0  0  0  0  0  0  0  0  0  0  0  0
    2.4860   -2.0840    0.0000 C   0  0  0  0  0  0  0  0  0  0  0  0
    2.4860    0.3910    0.0000 C   0  0  0  0  0  0  0  0  0  0  0  0
    5.9350   -1.8940    0.0000 C   0  0  0  0  0  0  0  0  0  0  0  0
    3.9150    1.2160    0.0000 C   0  0  0  0  0  0  0  0  0  0  0  0
    2.4860    1.2160    0.0000 C   0  0  0  0  0  0  0  0  0  0  0  0
    3.2010    1.6290    0.0000 C   0  0  0  0  0  0  0  0  0  0  0  0
    1.7350    2.5180    0.0000 C   0  0  0  0  0  0  0  0  0  0  0  0
    4.8680   -1.4980    0.0000 H   0  0  0  0  0  0  0  0  0  0  0  0
    1.8200   -1.4520    0.0000 H   0  0  0  0  0  0  0  0  0  0  0  0
  1  9  1  0  0  0  0
  1 18  1  0  0  0  0
  3 17  2  0  0  0  0
  4 21  1  0  0  0  0
  4 23  1  0  0  0  0
  5  8  1  0  0  0  0
  5 14  1  0  0  0  0
  5 19  1  0  0  0  0
  6  7  1  0  0  0  0
  6  9  1  0  0  0  0
  6 10  1  1  0  0  0
  6 11  1  0  0  0  0
  7  2  1  1  0  0  0
  7  8  1  0  0  0  0
  7 12  1  0  0  0  0
  8 13  1  0  0  0  0
  8 24  1  6  0  0  0
  9 17  1  0  0  0  0
  9 25  1  1  0  0  0
 10 14  1  0  0  0  0
 11 15  1  0  0  0  0
 11 18  2  0  0  0  0
 12 16  1  0  0  0  0
 13 15  1  0  0  0  0
 15 20  2  0  0  0  0
 16 17  1  0  0  0  0
 18 21  1  0  0  0  0
 20 22  1  0  0  0  0
 21 22  2  0  0  0  0
M  END
>  <DATABASE_ID>
DB00497

>  <DATABASE_NAME>
drugbank

>  <SMILES>
O1[C@@H]2[C@]34CCN([C@H](Cc5c3c1c(OC)cc5)[C@]4(O)CCC2=O)C

>  <INCHI_IDENTIFIER>
InChI=1S/C18H21NO4/c1-19-8-7-17-14-10-3-4-12(22-2)15(14)23-16(17)11(20)5-6-18(17,21)13(19)9-10/h3-4,13,16,21H,5-9H2,1-2H3/t13-,16+,17+,18-/m1/s1

>  <INCHI_KEY>
InChIKey=BRUQQQPBMZOVGD-XFKAJCMBSA-N

>  <JCHEM_ACCEPTOR_COUNT>
5

>  <JCHEM_AVERAGE_POLARIZABILITY>
32.804394

>  <JCHEM_BIOAVAILABILITY>
1

>  <JCHEM_DONOR_COUNT>
1

>  <JCHEM_EXACT_MASS>
315.14706

>  <JCHEM_FORMAL_CHARGE>
0

>  <JCHEM_FORMULA>
C18H21NO4

>  <JCHEM_GHOSE_FILTER>
1

>  <JCHEM_IUPAC>
(1S,5R,13R,17S)-17-hydroxy-10-methoxy-4-methyl-12-oxa-4-azapentacyclo[9.6.1.0^{1,13}.0^{5,17}.0^{7,18}]octadeca-7(18),8,10-trien-14-one

>  <ALOGPS_LOGP>
1.04

>  <JCHEM_LOGP>
1.0348654

>  <ALOGPS_LOGS>
-1.75

>  <JCHEM_MASS>
315.36359

>  <JCHEM_MDDR_LIKE_RULE>
0

>  <JCHEM_NUMBER_OF_RINGS>
5

>  <JCHEM_PHYSIOLOGICAL_CHARGE>
1

>  <JCHEM_PKA>
16.167995

>  <JCHEM_PKA_STRONGEST_ACIDIC>
13.562788

>  <JCHEM_PKA_STRONGEST_BASIC>
8.2101393

>  <JCHEM_POLAR_SURFACE_AREA>
59

>  <JCHEM_REFRACTIVITY>
84.041801

>  <JCHEM_ROTATABLE_BOND_COUNT>
1

>  <JCHEM_RULE_OF_FIVE>
1

>  <ALOGPS_SOLUBILITY>
5.59e+00 g/l

>  <JCHEM_TRADITIONAL_IUPAC>
oxycodone

>  <JCHEM_VEBER_RULE>
0

>  <DRUGBANK_ID>
DB00497

>  <DRUG_GROUPS>
approved; illicit; investigational

>  <GENERIC_NAME>
Oxycodone

>  <SYNONYMS>
Dihydrohydroxycodeinone; Dihydroxycodeinone; Oxicodona; Oxycodonum

>  <BRANDS>
Oxanest; Oxecta; Oxycontin; OxyIR; Roxicodone

>  <SALTS>
Oxycodone Hydrochloride

$$$$
Flutamide
 OpenBabel02121510022D

 19 19  0  0  0  0  0  0  0  0999 V2000
    2.9680    1.8560    0.0000 F   0  0  0  0  0  0  0  0  0  0  0  0
    4.6180    1.8560    0.0000 F   0  0  0  0  0  0  0  0  0  0  0  0
    3.7940    2.6810    0.0000 F   0  0  0  0  0  0  0  0  0  0  0  0
    4.5080   -1.8560    0.0000 O   0  0  0  0  0  0  0  0  0  0  0  0
    1.6500    0.6190    0.0000 O   0  5  0  0  0  0  0  0  0  0  0  0
    2.3640    1.8560    0.0000 O   0  0  0  0  0  0  0  0  0  0  0  0
    5.2220   -0.6190    0.0000 N   0  0  0  0  0  0  0  0  0  0  0  0
    2.3640    1.0310    0.0000 N   0  3  0  0  0  0  0  0  0  0  0  0
    5.9370   -1.8560    0.0000 C   0  0  0  0  0  0  0  0  0  0  0  0
    4.5080   -0.2060    0.0000 C   0  0  0  0  0  0  0  0  0  0  0  0
    5.2220   -1.4440    0.0000 C   0  0  0  0  0  0  0  0  0  0  0  0
    3.7940    1.0310    0.0000 C   0  0  0  0  0  0  0  0  0  0  0  0
    4.5080    0.6190    0.0000 C   0  0  0  0  0  0  0  0  0  0  0  0
    6.6520   -1.4440    0.0000 C   0  0  0  0  0  0  0  0  0  0  0  0
    5.9370   -2.6810    0.0000 C   0  0  0  0  0  0  0  0  0  0  0  0
    3.0790    0.6190    0.0000 C   0  0  0  0  0  0  0  0  0  0  0  0
    3.7940   -0.6190    0.0000 C   0  0  0  0  0  0  0  0  0  0  0  0
    3.0790   -0.2060    0.0000 C   0  0  0  0  0  0  0  0  0  0  0  0
    3.7940    1.8560    0.0000 C   0  0  0  0  0  0  0  0  0  0  0  0
  1 19  1  0  0  0  0
  2 19  1  0  0  0  0
  3 19  1  0  0  0  0
  4 11  2  0  0  0  0
  5  8  1  0  0  0  0
  6  8  2  0  0  0  0
  7 10  1  0  0  0  0
  7 11  1  0  0  0  0
  8 16  1  0  0  0  0
  9 11  1  0  0  0  0
  9 14  1  0  0  0  0
  9 15  1  0  0  0  0
 10 13  2  0  0  0  0
 10 17  1  0  0  0  0
 12 13  1  0  0  0  0
 12 16  2  0  0  0  0
 12 19  1  0  0  0  0
 16 18  1  0  0  0  0
 17 18  2  0  0  0  0
M  CHG  2   5  -1   8   1
M  END
>  <DATABASE_ID>
DB00499

>  <DATABASE_NAME>
drugbank

>  <SMILES>
FC(F)(F)c1cc(NC(=O)C(C)C)ccc1[N+](=O)[O-]

>  <INCHI_IDENTIFIER>
InChI=1S/C11H11F3N2O3/c1-6(2)10(17)15-7-3-4-9(16(18)19)8(5-7)11(12,13)14/h3-6H,1-2H3,(H,15,17)

>  <INCHI_KEY>
InChIKey=MKXKFYHWDHIYRV-UHFFFAOYSA-N

>  <JCHEM_ACCEPTOR_COUNT>
3

>  <JCHEM_AVERAGE_POLARIZABILITY>
23.204004

>  <JCHEM_BIOAVAILABILITY>
1

>  <JCHEM_DONOR_COUNT>
1

>  <JCHEM_EXACT_MASS>
276.07217

>  <JCHEM_FORMAL_CHARGE>
0

>  <JCHEM_FORMULA>
C11H11F3N2O3

>  <JCHEM_GHOSE_FILTER>
1

>  <JCHEM_IUPAC>
2-methyl-N-[4-nitro-3-(trifluoromethyl)phenyl]propanamide

>  <ALOGPS_LOGP>
2.55

>  <JCHEM_LOGP>
3.272311

>  <ALOGPS_LOGS>
-4.6900001

>  <JCHEM_MASS>
276.21179

>  <JCHEM_MDDR_LIKE_RULE>
0

>  <JCHEM_NUMBER_OF_RINGS>
1

>  <JCHEM_PHYSIOLOGICAL_CHARGE>
0

>  <JCHEM_PKA_STRONGEST_ACIDIC>
13.17286

>  <JCHEM_PKA_STRONGEST_BASIC>
-3.6999385

>  <JCHEM_POLAR_SURFACE_AREA>
74.919998

>  <JCHEM_REFRACTIVITY>
63.420799

>  <JCHEM_ROTATABLE_BOND_COUNT>
4

>  <JCHEM_RULE_OF_FIVE>
1

>  <ALOGPS_SOLUBILITY>
5.66e-03 g/l

>  <JCHEM_TRADITIONAL_IUPAC>
flutamide

>  <JCHEM_VEBER_RULE>
0

>  <DRUGBANK_ID>
DB00499

>  <DRUG_GROUPS>
approved

>  <GENERIC_NAME>
Flutamide

>  <SYNONYMS>
Flutamid; Flutamida; Flutamide; Flutamidum; FTA; NFBA

>  <BRANDS>
Andraxan; Antipros; Curestat; Cytomid; Dedile; Drogenil; Elbat; Etaconil; Euflex; Eulexin; Farostat; Flimutal; Flucinom; Flulem; Odyne; Prostadirex; Prostanon

$$$$
Tolmetin
 OpenBabel02121510022D

 19 20  0  0  0  0  0  0  0  0999 V2000
    1.6500    0.5370    0.0000 O   0  0  0  0  0  0  0  0  0  0  0  0
    5.4640    3.1220    0.0000 O   0  0  0  0  0  0  0  0  0  0  0  0
    5.6130    1.7010    0.0000 O   0  0  0  0  0  0  0  0  0  0  0  0
    3.1650    1.3570    0.0000 N   0  0  0  0  0  0  0  0  0  0  0  0
    3.9720    1.5290    0.0000 C   0  0  0  0  0  0  0  0  0  0  0  0
    3.0790    0.5370    0.0000 C   0  0  0  0  0  0  0  0  0  0  0  0
    4.3850    0.8140    0.0000 C   0  0  0  0  0  0  0  0  0  0  0  0
    3.8330    0.2010    0.0000 C   0  0  0  0  0  0  0  0  0  0  0  0
    4.3080    2.2820    0.0000 C   0  0  0  0  0  0  0  0  0  0  0  0
    2.3640    0.1240    0.0000 C   0  0  0  0  0  0  0  0  0  0  0  0
    2.5520    1.9090    0.0000 C   0  0  0  0  0  0  0  0  0  0  0  0
    2.3640   -0.7010    0.0000 C   0  0  0  0  0  0  0  0  0  0  0  0
    1.6500   -1.1130    0.0000 C   0  0  0  0  0  0  0  0  0  0  0  0
    3.0790   -1.1130    0.0000 C   0  0  0  0  0  0  0  0  0  0  0  0
    2.3640   -2.3510    0.0000 C   0  0  0  0  0  0  0  0  0  0  0  0
    1.6500   -1.9380    0.0000 C   0  0  0  0  0  0  0  0  0  0  0  0
    3.0790   -1.9380    0.0000 C   0  0  0  0  0  0  0  0  0  0  0  0
    5.1280    2.3690    0.0000 C   0  0  0  0  0  0  0  0  0  0  0  0
    2.3640   -3.1760    0.0000 C   0  0  0  0  0  0  0  0  0  0  0  0
  1 10  2  0  0  0  0
  2 18  1  0  0  0  0
  3 18  2  0  0  0  0
  4  5  1  0  0  0  0
  4  6  1  0  0  0  0
  4 11  1  0  0  0  0
  5  7  2  0  0  0  0
  5  9  1  0  0  0  0
  6  8  2  0  0  0  0
  6 10  1  0  0  0  0
  7  8  1  0  0  0  0
  9 18  1  0  0  0  0
 10 12  1  0  0  0  0
 12 13  2  0  0  0  0
 12 14  1  0  0  0  0
 13 16  1  0  0  0  0
 14 17  2  0  0  0  0
 15 16  2  0  0  0  0
 15 17  1  0  0  0  0
 15 19  1  0  0  0  0
M  END
>  <DATABASE_ID>
DB00500

>  <DATABASE_NAME>
drugbank

>  <SMILES>
OC(=O)Cc1n(C)c(cc1)C(=O)c1ccc(cc1)C

>  <INCHI_IDENTIFIER>
InChI=1S/C15H15NO3/c1-10-3-5-11(6-4-10)15(19)13-8-7-12(16(13)2)9-14(17)18/h3-8H,9H2,1-2H3,(H,17,18)

>  <INCHI_KEY>
InChIKey=UPSPUYADGBWSHF-UHFFFAOYSA-N

>  <JCHEM_ACCEPTOR_COUNT>
3

>  <JCHEM_AVERAGE_POLARIZABILITY>
27.673506

>  <JCHEM_BIOAVAILABILITY>
1

>  <JCHEM_DONOR_COUNT>
1

>  <JCHEM_EXACT_MASS>
257.10519

>  <JCHEM_FORMAL_CHARGE>
0

>  <JCHEM_FORMULA>
C15H15NO3

>  <JCHEM_GHOSE_FILTER>
1

>  <JCHEM_IUPAC>
2-{1-methyl-5-[(4-methylphenyl)carbonyl]-1H-pyrrol-2-yl}acetic acid

>  <ALOGPS_LOGP>
2.8099999

>  <JCHEM_LOGP>
2.7273309

>  <ALOGPS_LOGS>
-3.29

>  <JCHEM_MASS>
257.28448

>  <JCHEM_MDDR_LIKE_RULE>
0

>  <JCHEM_NUMBER_OF_RINGS>
2

>  <JCHEM_PHYSIOLOGICAL_CHARGE>
-1

>  <JCHEM_PKA_STRONGEST_ACIDIC>
3.9581683

>  <JCHEM_PKA_STRONGEST_BASIC>
-7.7814565

>  <JCHEM_POLAR_SURFACE_AREA>
59.299999

>  <JCHEM_REFRACTIVITY>
72.392799

>  <JCHEM_ROTATABLE_BOND_COUNT>
4

>  <JCHEM_RULE_OF_FIVE>
1

>  <ALOGPS_SOLUBILITY>
1.31e-01 g/l

>  <JCHEM_TRADITIONAL_IUPAC>
tolmetin

>  <JCHEM_VEBER_RULE>
0

>  <DRUGBANK_ID>
DB00500

>  <DRUG_GROUPS>
approved

>  <GENERIC_NAME>
Tolmetin

>  <SYNONYMS>
Tolmetin; Tolmetina; Tolmétine; Tolmetino; Tolmetinum

>  <BRANDS>
Tolectin; Tolectin DS

>  <SALTS>
Tolmetin Sodium

$$$$
Cimetidine
 OpenBabel02121510022D

 17 17  0  0  0  0  0  0  0  0999 V2000
    2.8800   -0.9080    0.0000 S   0  0  0  0  0  0  0  0  0  0  0  0
    2.3180   -3.5980    0.0000 N   0  0  0  0  0  0  0  0  0  0  0  0
    3.5140    1.1810    0.0000 N   0  0  0  0  0  0  0  0  0  0  0  0
    1.9050   -2.3290    0.0000 N   0  0  0  0  0  0  0  0  0  0  0  0
    3.6630    2.6020    0.0000 N   0  0  0  0  0  0  0  0  0  0  0  0
    2.3580    2.0210    0.0000 N   0  0  0  0  0  0  0  0  0  0  0  0
    2.9920    4.1100    0.0000 N   0  0  0  0  0  0  0  0  0  0  0  0
    2.7300   -2.3290    0.0000 C   0  0  0  0  0  0  0  0  0  0  0  0
    3.2150   -1.6610    0.0000 C   0  0  0  0  0  0  0  0  0  0  0  0
    3.3640   -0.2400    0.0000 C   0  0  0  0  0  0  0  0  0  0  0  0
    3.0290    0.5140    0.0000 C   0  0  0  0  0  0  0  0  0  0  0  0
    2.9850   -3.1130    0.0000 C   0  0  0  0  0  0  0  0  0  0  0  0
    3.7700   -3.3680    0.0000 C   0  0  0  0  0  0  0  0  0  0  0  0
    1.6500   -3.1130    0.0000 C   0  0  0  0  0  0  0  0  0  0  0  0
    3.1780    1.9350    0.0000 C   0  0  0  0  0  0  0  0  0  0  0  0
    2.0220    2.7750    0.0000 C   0  0  0  0  0  0  0  0  0  0  0  0
    3.3280    3.3560    0.0000 C   0  0  0  0  0  0  0  0  0  0  0  0
  1  9  1  0  0  0  0
  1 10  1  0  0  0  0
  2 12  1  0  0  0  0
  2 14  1  0  0  0  0
  3 11  1  0  0  0  0
  3 15  1  0  0  0  0
  4  8  1  0  0  0  0
  4 14  2  0  0  0  0
  5 15  1  0  0  0  0
  5 17  1  0  0  0  0
  6 15  2  0  0  0  0
  6 16  1  0  0  0  0
  7 17  3  0  0  0  0
  8  9  1  0  0  0  0
  8 12  2  0  0  0  0
 10 11  1  0  0  0  0
 12 13  1  0  0  0  0
M  END
>  <DATABASE_ID>
DB00501

>  <DATABASE_NAME>
drugbank

>  <SMILES>
S(Cc1nc[nH]c1C)CCN\C(=N\C)\NC#N

>  <INCHI_IDENTIFIER>
InChI=1S/C10H16N6S/c1-8-9(16-7-15-8)5-17-4-3-13-10(12-2)14-6-11/h7H,3-5H2,1-2H3,(H,15,16)(H2,12,13,14)

>  <INCHI_KEY>
InChIKey=AQIXAKUUQRKLND-UHFFFAOYSA-N

>  <JCHEM_ACCEPTOR_COUNT>
5

>  <JCHEM_AVERAGE_POLARIZABILITY>
27.473564

>  <JCHEM_BIOAVAILABILITY>
1

>  <JCHEM_DONOR_COUNT>
3

>  <JCHEM_EXACT_MASS>
252.11572

>  <JCHEM_FORMAL_CHARGE>
0

>  <JCHEM_FORMULA>
C10H16N6S

>  <JCHEM_GHOSE_FILTER>
1

>  <JCHEM_IUPAC>
(Z)-1-cyano-2-methyl-3-(2-{[(5-methyl-1H-imidazol-4-yl)methyl]sulfanyl}ethyl)guanidine

>  <ALOGPS_LOGP>
0.44

>  <JCHEM_LOGP>
-0.10935611

>  <ALOGPS_LOGS>
-2.49

>  <JCHEM_MASS>
252.339

>  <JCHEM_MDDR_LIKE_RULE>
0

>  <JCHEM_NUMBER_OF_RINGS>
1

>  <JCHEM_PHYSIOLOGICAL_CHARGE>
0

>  <JCHEM_PKA>
19.978992

>  <JCHEM_PKA_STRONGEST_ACIDIC>
13.3825

>  <JCHEM_PKA_STRONGEST_BASIC>
6.913919

>  <JCHEM_POLAR_SURFACE_AREA>
88.889999

>  <JCHEM_REFRACTIVITY>
70.317101

>  <JCHEM_ROTATABLE_BOND_COUNT>
5

>  <JCHEM_RULE_OF_FIVE>
1

>  <ALOGPS_SOLUBILITY>
8.16e-01 g/l

>  <JCHEM_TRADITIONAL_IUPAC>
cimetidine

>  <JCHEM_VEBER_RULE>
0

>  <DRUGBANK_ID>
DB00501

>  <DRUG_GROUPS>
approved

>  <GENERIC_NAME>
Cimetidine

>  <SYNONYMS>
Cimetidin; Cimetidina; Cimétidine; Cimetidinum

>  <BRANDS>
Cimetag; Tagamet; Tagamet HB; Tagamet HB200; Ulcedine; Ulcerfen; Ulcimet

>  <SALTS>
Cimetidine Hydrochloride

$$$$
Haloperidol
 OpenBabel02121510022D

 26 28  0  0  0  0  0  0  0  0999 V2000
    5.4440    5.1420    0.0000 Cl  0  0  0  0  0  0  0  0  0  0  0  0
    2.3640   -5.1420    0.0000 F   0  0  0  0  0  0  0  0  0  0  0  0
    3.3810    2.9980    0.0000 O   0  0  0  0  0  0  0  0  0  0  0  0
    1.6500   -1.4290    0.0000 O   0  0  0  0  0  0  0  0  0  0  0  0
    3.7940    0.6340    0.0000 N   0  0  0  0  0  0  0  0  0  0  0  0
    3.7940    2.2840    0.0000 C   0  0  0  0  0  0  0  0  0  0  0  0
    3.0790    1.8710    0.0000 C   0  0  0  0  0  0  0  0  0  0  0  0
    4.5080    1.8710    0.0000 C   0  0  0  0  0  0  0  0  0  0  0  0
    3.0790    1.0460    0.0000 C   0  0  0  0  0  0  0  0  0  0  0  0
    4.5080    1.0460    0.0000 C   0  0  0  0  0  0  0  0  0  0  0  0
    3.7940   -0.1920    0.0000 C   0  0  0  0  0  0  0  0  0  0  0  0
    4.2060    2.9980    0.0000 C   0  0  0  0  0  0  0  0  0  0  0  0
    3.0790   -0.6040    0.0000 C   0  0  0  0  0  0  0  0  0  0  0  0
    3.7940    3.7130    0.0000 C   0  0  0  0  0  0  0  0  0  0  0  0
    5.0310    2.9980    0.0000 C   0  0  0  0  0  0  0  0  0  0  0  0
    3.0790   -1.4290    0.0000 C   0  0  0  0  0  0  0  0  0  0  0  0
    4.2060    4.4270    0.0000 C   0  0  0  0  0  0  0  0  0  0  0  0
    5.4440    3.7130    0.0000 C   0  0  0  0  0  0  0  0  0  0  0  0
    2.3640   -1.8420    0.0000 C   0  0  0  0  0  0  0  0  0  0  0  0
    5.0310    4.4270    0.0000 C   0  0  0  0  0  0  0  0  0  0  0  0
    2.3640   -2.6660    0.0000 C   0  0  0  0  0  0  0  0  0  0  0  0
    3.0790   -3.0790    0.0000 C   0  0  0  0  0  0  0  0  0  0  0  0
    1.6500   -3.0790    0.0000 C   0  0  0  0  0  0  0  0  0  0  0  0
    3.0790   -3.9040    0.0000 C   0  0  0  0  0  0  0  0  0  0  0  0
    1.6500   -3.9040    0.0000 C   0  0  0  0  0  0  0  0  0  0  0  0
    2.3640   -4.3170    0.0000 C   0  0  0  0  0  0  0  0  0  0  0  0
  1 20  1  0  0  0  0
  2 26  1  0  0  0  0
  3  6  1  0  0  0  0
  4 19  2  0  0  0  0
  5  9  1  0  0  0  0
  5 10  1  0  0  0  0
  5 11  1  0  0  0  0
  6  7  1  0  0  0  0
  6  8  1  0  0  0  0
  6 12  1  0  0  0  0
  7  9  1  0  0  0  0
  8 10  1  0  0  0  0
 11 13  1  0  0  0  0
 12 14  2  0  0  0  0
 12 15  1  0  0  0  0
 13 16  1  0  0  0  0
 14 17  1  0  0  0  0
 15 18  2  0  0  0  0
 16 19  1  0  0  0  0
 17 20  2  0  0  0  0
 18 20  1  0  0  0  0
 19 21  1  0  0  0  0
 21 22  2  0  0  0  0
 21 23  1  0  0  0  0
 22 24  1  0  0  0  0
 23 25  2  0  0  0  0
 24 26  2  0  0  0  0
 25 26  1  0  0  0  0
M  END
>  <DATABASE_ID>
DB00502

>  <DATABASE_NAME>
drugbank

>  <SMILES>
Clc1ccc(cc1)C1(O)CCN(CC1)CCCC(=O)c1ccc(F)cc1

>  <INCHI_IDENTIFIER>
InChI=1S/C21H23ClFNO2/c22-18-7-5-17(6-8-18)21(26)11-14-24(15-12-21)13-1-2-20(25)16-3-9-19(23)10-4-16/h3-10,26H,1-2,11-15H2

>  <INCHI_KEY>
InChIKey=LNEPOXFFQSENCJ-UHFFFAOYSA-N

>  <JCHEM_ACCEPTOR_COUNT>
3

>  <JCHEM_AVERAGE_POLARIZABILITY>
39.147556

>  <JCHEM_BIOAVAILABILITY>
1

>  <JCHEM_DONOR_COUNT>
1

>  <JCHEM_EXACT_MASS>
375.14014

>  <JCHEM_FORMAL_CHARGE>
0

>  <JCHEM_FORMULA>
C21H23ClFNO2

>  <JCHEM_GHOSE_FILTER>
1

>  <JCHEM_IUPAC>
4-[4-(4-chlorophenyl)-4-hydroxypiperidin-1-yl]-1-(4-fluorophenyl)butan-1-one

>  <ALOGPS_LOGP>
3.7

>  <JCHEM_LOGP>
3.6611137

>  <ALOGPS_LOGS>
-4.9299998

>  <JCHEM_MASS>
375.86401

>  <JCHEM_MDDR_LIKE_RULE>
1

>  <JCHEM_NUMBER_OF_RINGS>
3

>  <JCHEM_PHYSIOLOGICAL_CHARGE>
1

>  <JCHEM_PKA>
16.398188

>  <JCHEM_PKA_STRONGEST_ACIDIC>
13.963255

>  <JCHEM_PKA_STRONGEST_BASIC>
8.0452881

>  <JCHEM_POLAR_SURFACE_AREA>
40.540001

>  <JCHEM_REFRACTIVITY>
102.5919

>  <JCHEM_ROTATABLE_BOND_COUNT>
6

>  <JCHEM_RULE_OF_FIVE>
1

>  <ALOGPS_SOLUBILITY>
4.46e-03 g/l

>  <JCHEM_TRADITIONAL_IUPAC>
haloperidol

>  <JCHEM_VEBER_RULE>
0

>  <DRUGBANK_ID>
DB00502

>  <DRUG_GROUPS>
approved

>  <GENERIC_NAME>
Haloperidol

>  <BRANDS>
Aloperidin; Bioperidolo; Brotopon; Dozic; Duraperidol; Einalon S; Eukystol; Haldol; Halosten; Keselan; Linton; Peluces; Serenace; Sigaperidol

$$$$
Ritonavir
 OpenBabel02121510022D

 50 53  0  0  1  0  0  0  0  0999 V2000
   10.4030    0.0390    0.0000 S   0  0  0  0  0  0  0  0  0  0  0  0
    7.4050   -1.1080    0.0000 S   0  0  0  0  0  0  0  0  0  0  0  0
    2.3640    0.2060    0.0000 O   0  0  0  0  0  0  0  0  0  0  0  0
    5.2220    0.2060    0.0000 O   0  0  0  0  0  0  0  0  0  0  0  0
    5.2220   -1.4440    0.0000 O   0  0  0  0  0  0  0  0  0  0  0  0
    4.5080   -0.2060    0.0000 O   0  0  0  0  0  0  0  0  0  0  0  0
    7.3660    2.2690    0.0000 O   0  0  0  0  0  0  0  0  0  0  0  0
    4.5080    1.4440    0.0000 N   0  0  0  0  0  0  0  0  0  0  0  0
    3.7940   -1.4440    0.0000 N   0  0  0  0  0  0  0  0  0  0  0  0
    6.6520    1.0310    0.0000 N   0  0  0  0  0  0  0  0  0  0  0  0
    8.0800    1.0310    0.0000 N   0  0  0  0  0  0  0  0  0  0  0  0
   10.2630    1.3670    0.0000 N   0  0  0  0  0  0  0  0  0  0  0  0
    7.5450   -2.4360    0.0000 N   0  0  0  0  0  0  0  0  0  0  0  0
    3.7940    1.0310    0.0000 C   0  0  2  0  0  0  0  0  0  0  0  0
    3.7940    0.2060    0.0000 C   0  0  0  0  0  0  0  0  0  0  0  0
    3.0790   -0.2060    0.0000 C   0  0  1  0  0  0  0  0  0  0  0  0
    3.0790   -1.0310    0.0000 C   0  0  2  0  0  0  0  0  0  0  0  0
    3.0790    1.4440    0.0000 C   0  0  0  0  0  0  0  0  0  0  0  0
    2.3640   -1.4440    0.0000 C   0  0  0  0  0  0  0  0  0  0  0  0
    5.9370    1.4440    0.0000 C   0  0  1  0  0  0  0  0  0  0  0  0
    5.9370    2.2690    0.0000 C   0  0  0  0  0  0  0  0  0  0  0  0
    5.2220    1.0310    0.0000 C   0  0  0  0  0  0  0  0  0  0  0  0
    3.0790    2.2690    0.0000 C   0  0  0  0  0  0  0  0  0  0  0  0
    2.3640   -2.2690    0.0000 C   0  0  0  0  0  0  0  0  0  0  0  0
    5.2220    2.6810    0.0000 C   0  0  0  0  0  0  0  0  0  0  0  0
    6.6520    2.6810    0.0000 C   0  0  0  0  0  0  0  0  0  0  0  0
    2.3640    2.6810    0.0000 C   0  0  0  0  0  0  0  0  0  0  0  0
    3.7940    2.6810    0.0000 C   0  0  0  0  0  0  0  0  0  0  0  0
    4.5080   -1.0310    0.0000 C   0  0  0  0  0  0  0  0  0  0  0  0
    3.0790   -2.6810    0.0000 C   0  0  0  0  0  0  0  0  0  0  0  0
    1.6500   -2.6810    0.0000 C   0  0  0  0  0  0  0  0  0  0  0  0
    7.3660    1.4440    0.0000 C   0  0  0  0  0  0  0  0  0  0  0  0
    2.3640    3.5060    0.0000 C   0  0  0  0  0  0  0  0  0  0  0  0
    3.7940    3.5060    0.0000 C   0  0  0  0  0  0  0  0  0  0  0  0
    3.0790   -3.5060    0.0000 C   0  0  0  0  0  0  0  0  0  0  0  0
    1.6500   -3.5060    0.0000 C   0  0  0  0  0  0  0  0  0  0  0  0
    3.0790    3.9190    0.0000 C   0  0  0  0  0  0  0  0  0  0  0  0
    2.3640   -3.9190    0.0000 C   0  0  0  0  0  0  0  0  0  0  0  0
    8.7950    1.4440    0.0000 C   0  0  0  0  0  0  0  0  0  0  0  0
    8.0800    0.2060    0.0000 C   0  0  0  0  0  0  0  0  0  0  0  0
    5.9370   -1.0310    0.0000 C   0  0  0  0  0  0  0  0  0  0  0  0
    9.5090    1.0310    0.0000 C   0  0  0  0  0  0  0  0  0  0  0  0
    6.6520   -1.4440    0.0000 C   0  0  0  0  0  0  0  0  0  0  0  0
   10.8150    0.7540    0.0000 C   0  0  0  0  0  0  0  0  0  0  0  0
    9.5960    0.2110    0.0000 C   0  0  0  0  0  0  0  0  0  0  0  0
   11.6360    0.8400    0.0000 C   0  0  0  0  0  0  0  0  0  0  0  0
   12.1210    0.1720    0.0000 C   0  0  0  0  0  0  0  0  0  0  0  0
   11.9710    1.5940    0.0000 C   0  0  0  0  0  0  0  0  0  0  0  0
    6.7380   -2.2640    0.0000 C   0  0  0  0  0  0  0  0  0  0  0  0
    7.9570   -1.7210    0.0000 C   0  0  0  0  0  0  0  0  0  0  0  0
  1 44  1  0  0  0  0
  1 45  1  0  0  0  0
  2 43  1  0  0  0  0
  2 50  1  0  0  0  0
  4 22  2  0  0  0  0
  5 29  1  0  0  0  0
  5 41  1  0  0  0  0
  6 29  2  0  0  0  0
  7 32  2  0  0  0  0
  8 22  1  0  0  0  0
  9 29  1  0  0  0  0
 10 32  1  0  0  0  0
 11 32  1  0  0  0  0
 11 39  1  0  0  0  0
 11 40  1  0  0  0  0
 12 42  1  0  0  0  0
 12 44  2  0  0  0  0
 13 49  1  0  0  0  0
 13 50  2  0  0  0  0
 14  8  1  6  0  0  0
 14 15  1  0  0  0  0
 14 18  1  0  0  0  0
 16 15  1  1  0  0  0
 16  3  1  0  0  0  0
 16 17  1  0  0  0  0
 17  9  1  1  0  0  0
 17 19  1  0  0  0  0
 18 23  1  0  0  0  0
 19 24  1  0  0  0  0
 20 10  1  6  0  0  0
 20 21  1  0  0  0  0
 20 22  1  0  0  0  0
 21 25  1  0  0  0  0
 21 26  1  0  0  0  0
 23 27  2  0  0  0  0
 23 28  1  0  0  0  0
 24 30  2  0  0  0  0
 24 31  1  0  0  0  0
 27 33  1  0  0  0  0
 28 34  2  0  0  0  0
 30 35  1  0  0  0  0
 31 36  2  0  0  0  0
 33 37  2  0  0  0  0
 34 37  1  0  0  0  0
 35 38  2  0  0  0  0
 36 38  1  0  0  0  0
 39 42  1  0  0  0  0
 41 43  1  0  0  0  0
 42 45  2  0  0  0  0
 43 49  2  0  0  0  0
 44 46  1  0  0  0  0
 46 47  1  0  0  0  0
 46 48  1  0  0  0  0
M  END
>  <DATABASE_ID>
DB00503

>  <DATABASE_NAME>
drugbank

>  <SMILES>
s1cncc1COC(=O)N[C@H]([C@@H](O)C[C@@H](NC(=O)[C@@H](NC(=O)N(Cc1nc(sc1)C(C)C)C)C(C)C)Cc1ccccc1)Cc1ccccc1

>  <INCHI_IDENTIFIER>
InChI=1S/C37H48N6O5S2/c1-24(2)33(42-36(46)43(5)20-29-22-49-35(40-29)25(3)4)34(45)39-28(16-26-12-8-6-9-13-26)18-32(44)31(17-27-14-10-7-11-15-27)41-37(47)48-21-30-19-38-23-50-30/h6-15,19,22-25,28,31-33,44H,16-18,20-21H2,1-5H3,(H,39,45)(H,41,47)(H,42,46)/t28-,31-,32-,33-/m0/s1

>  <INCHI_KEY>
InChIKey=NCDNCNXCDXHOMX-XGKFQTDJSA-N

>  <JCHEM_ACCEPTOR_COUNT>
6

>  <JCHEM_AVERAGE_POLARIZABILITY>
77.400009

>  <JCHEM_BIOAVAILABILITY>
0

>  <JCHEM_DONOR_COUNT>
4

>  <JCHEM_EXACT_MASS>
720.31274

>  <JCHEM_FORMAL_CHARGE>
0

>  <JCHEM_FORMULA>
C37H48N6O5S2

>  <JCHEM_GHOSE_FILTER>
0

>  <JCHEM_IUPAC>
1,3-thiazol-5-ylmethyl N-[(2S,3S,5S)-3-hydroxy-5-[(2S)-3-methyl-2-{[methyl({[2-(propan-2-yl)-1,3-thiazol-4-yl]methyl})carbamoyl]amino}butanamido]-1,6-diphenylhexan-2-yl]carbamate

>  <ALOGPS_LOGP>
4.2399998

>  <JCHEM_LOGP>
5.2217822

>  <ALOGPS_LOGS>
-5.7600002

>  <JCHEM_MASS>
720.94397

>  <JCHEM_MDDR_LIKE_RULE>
1

>  <JCHEM_NUMBER_OF_RINGS>
4

>  <JCHEM_PHYSIOLOGICAL_CHARGE>
0

>  <JCHEM_PKA>
14.2299

>  <JCHEM_PKA_STRONGEST_ACIDIC>
13.678454

>  <JCHEM_PKA_STRONGEST_BASIC>
2.8440871

>  <JCHEM_POLAR_SURFACE_AREA>
145.78

>  <JCHEM_REFRACTIVITY>
194.59241

>  <JCHEM_ROTATABLE_BOND_COUNT>
18

>  <JCHEM_RULE_OF_FIVE>
0

>  <ALOGPS_SOLUBILITY>
1.26e-03 g/l

>  <JCHEM_TRADITIONAL_IUPAC>
ritonavir

>  <JCHEM_VEBER_RULE>
0

>  <DRUGBANK_ID>
DB00503

>  <DRUG_GROUPS>
approved; investigational

>  <GENERIC_NAME>
Ritonavir

>  <SYNONYMS>
Ritonavir; Ritonavirum

>  <BRANDS>
Busvir; Empetus; Normune; Norvir

$$$$
Nitazoxanide
 OpenBabel02121510022D

 21 22  0  0  0  0  0  0  0  0999 V2000
    4.5550    0.9960    0.0000 S   0  0  0  0  0  0  0  0  0  0  0  0
    3.0790   -1.5520    0.0000 O   0  0  0  0  0  0  0  0  0  0  0  0
    3.7940   -0.3140    0.0000 O   0  0  0  0  0  0  0  0  0  0  0  0
    2.3640   -2.7890    0.0000 O   0  0  0  0  0  0  0  0  0  0  0  0
    4.6610    3.2020    0.0000 O   0  5  0  0  0  0  0  0  0  0  0  0
    3.5040    2.3620    0.0000 O   0  0  0  0  0  0  0  0  0  0  0  0
    5.2220   -0.3140    0.0000 N   0  0  0  0  0  0  0  0  0  0  0  0
    5.8900    0.9960    0.0000 N   0  0  0  0  0  0  0  0  0  0  0  0
    4.3250    2.4480    0.0000 N   0  3  0  0  0  0  0  0  0  0  0  0
    4.5080   -1.5520    0.0000 C   0  0  0  0  0  0  0  0  0  0  0  0
    3.7940   -1.9640    0.0000 C   0  0  0  0  0  0  0  0  0  0  0  0
    4.5080   -0.7270    0.0000 C   0  0  0  0  0  0  0  0  0  0  0  0
    5.2220   -1.9640    0.0000 C   0  0  0  0  0  0  0  0  0  0  0  0
    3.7940   -2.7890    0.0000 C   0  0  0  0  0  0  0  0  0  0  0  0
    5.2220   -2.7890    0.0000 C   0  0  0  0  0  0  0  0  0  0  0  0
    5.2220    0.5110    0.0000 C   0  0  0  0  0  0  0  0  0  0  0  0
    4.5080   -3.2020    0.0000 C   0  0  0  0  0  0  0  0  0  0  0  0
    4.8100    1.7800    0.0000 C   0  0  0  0  0  0  0  0  0  0  0  0
    5.6350    1.7800    0.0000 C   0  0  0  0  0  0  0  0  0  0  0  0
    2.3640   -1.9640    0.0000 C   0  0  0  0  0  0  0  0  0  0  0  0
    1.6500   -1.5520    0.0000 C   0  0  0  0  0  0  0  0  0  0  0  0
  1 16  1  0  0  0  0
  1 18  1  0  0  0  0
  2 11  1  0  0  0  0
  2 20  1  0  0  0  0
  3 12  2  0  0  0  0
  4 20  2  0  0  0  0
  5  9  1  0  0  0  0
  6  9  2  0  0  0  0
  7 12  1  0  0  0  0
  7 16  1  0  0  0  0
  8 16  2  0  0  0  0
  8 19  1  0  0  0  0
  9 18  1  0  0  0  0
 10 11  2  0  0  0  0
 10 12  1  0  0  0  0
 10 13  1  0  0  0  0
 11 14  1  0  0  0  0
 13 15  2  0  0  0  0
 14 17  2  0  0  0  0
 15 17  1  0  0  0  0
 18 19  2  0  0  0  0
 20 21  1  0  0  0  0
M  CHG  2   5  -1   9   1
M  END
>  <DATABASE_ID>
DB00507

>  <DATABASE_NAME>
drugbank

>  <SMILES>
s1c([N+](=O)[O-])cnc1NC(=O)c1ccccc1OC(=O)C

>  <INCHI_IDENTIFIER>
InChI=1S/C12H9N3O5S/c1-7(16)20-9-5-3-2-4-8(9)11(17)14-12-13-6-10(21-12)15(18)19/h2-6H,1H3,(H,13,14,17)

>  <INCHI_KEY>
InChIKey=YQNQNVDNTFHQSW-UHFFFAOYSA-N

>  <JCHEM_ACCEPTOR_COUNT>
5

>  <JCHEM_AVERAGE_POLARIZABILITY>
27.54298

>  <JCHEM_BIOAVAILABILITY>
1

>  <JCHEM_DONOR_COUNT>
1

>  <JCHEM_EXACT_MASS>
307.02631

>  <JCHEM_FORMAL_CHARGE>
0

>  <JCHEM_FORMULA>
C12H9N3O5S

>  <JCHEM_GHOSE_FILTER>
1

>  <JCHEM_IUPAC>
2-[(5-nitro-1,3-thiazol-2-yl)carbamoyl]phenyl acetate

>  <ALOGPS_LOGP>
2.1400001

>  <JCHEM_LOGP>
2.1214147

>  <ALOGPS_LOGS>
-4.6100001

>  <JCHEM_MASS>
307.28201

>  <JCHEM_MDDR_LIKE_RULE>
0

>  <JCHEM_NUMBER_OF_RINGS>
2

>  <JCHEM_PHYSIOLOGICAL_CHARGE>
0

>  <JCHEM_PKA_STRONGEST_ACIDIC>
8.2990875

>  <JCHEM_PKA_STRONGEST_BASIC>
-4.1975088

>  <JCHEM_POLAR_SURFACE_AREA>
114.11

>  <JCHEM_REFRACTIVITY>
73.890198

>  <JCHEM_ROTATABLE_BOND_COUNT>
5

>  <JCHEM_RULE_OF_FIVE>
1

>  <ALOGPS_SOLUBILITY>
7.55e-03 g/l

>  <JCHEM_TRADITIONAL_IUPAC>
nitazoxanide

>  <JCHEM_VEBER_RULE>
0

>  <DRUGBANK_ID>
DB00507

>  <DRUG_GROUPS>
approved; investigational

>  <GENERIC_NAME>
Nitazoxanide

>  <SYNONYMS>
Adrovet; Nitaxozanid; Nitaxozanide; Nitazoxanida; Nitazoxanidum; Nodik; Omniparax

>  <BRANDS>
Alinia; Alpex Nizox; ANNITA; Azoxanid; Celectan; Colufase; Coluquim; Daxon; Dianide; Diar; Famidox; Kaside; Kazide; Larvisol; Lumbris; Mixel; Niazid; Nitax; Nitaxide; Nitazet; Nitazofin

$$$$
Dextrothyroxine
 OpenBabel02121510022D

 24 25  0  0  1  0  0  0  0  0999 V2000
    1.3050    0.3230    0.0000 C   0  0  0  0  0  0  0  0  0  0  0  0
    1.3050   -0.5020    0.0000 C   0  0  0  0  0  0  0  0  0  0  0  0
    0.5900   -0.9150    0.0000 C   0  0  0  0  0  0  0  0  0  0  0  0
   -0.1240   -0.5020    0.0000 C   0  0  0  0  0  0  0  0  0  0  0  0
   -0.1240    0.3230    0.0000 C   0  0  0  0  0  0  0  0  0  0  0  0
    0.5900    0.7350    0.0000 C   0  0  0  0  0  0  0  0  0  0  0  0
    3.4480    0.7350    0.0000 C   0  0  0  0  0  0  0  0  0  0  0  0
    3.4480    1.5600    0.0000 O   0  0  0  0  0  0  0  0  0  0  0  0
    2.7340    0.3230    0.0000 C   0  0  1  0  0  0  0  0  0  0  0  0
    2.0190    0.7350    0.0000 C   0  0  0  0  0  0  0  0  0  0  0  0
    2.7340   -0.5020    0.0000 N   0  0  0  0  0  0  0  0  0  0  0  0
    4.1630    0.3230    0.0000 O   0  0  0  0  0  0  0  0  0  0  0  0
    0.5900   -1.7400    0.0000 I   0  0  0  0  0  0  0  0  0  0  0  0
   -0.8390   -0.9150    0.0000 O   0  0  0  0  0  0  0  0  0  0  0  0
   -3.6970    0.7350    0.0000 O   0  0  0  0  0  0  0  0  0  0  0  0
   -3.6970   -0.9150    0.0000 I   0  0  0  0  0  0  0  0  0  0  0  0
   -1.5530   -0.5020    0.0000 C   0  0  0  0  0  0  0  0  0  0  0  0
   -2.9820   -0.5020    0.0000 C   0  0  0  0  0  0  0  0  0  0  0  0
   -2.2680   -0.9150    0.0000 C   0  0  0  0  0  0  0  0  0  0  0  0
   -1.5530    0.3230    0.0000 C   0  0  0  0  0  0  0  0  0  0  0  0
   -2.9820    0.3230    0.0000 C   0  0  0  0  0  0  0  0  0  0  0  0
   -0.8390    0.7350    0.0000 I   0  0  0  0  0  0  0  0  0  0  0  0
   -2.2680    0.7350    0.0000 C   0  0  0  0  0  0  0  0  0  0  0  0
   -2.2680    1.5600    0.0000 I   0  0  0  0  0  0  0  0  0  0  0  0
  1  2  2  0  0  0  0
  1  6  1  0  0  0  0
  1 10  1  0  0  0  0
  2  3  1  0  0  0  0
  3  4  2  0  0  0  0
  3 13  1  0  0  0  0
  4  5  1  0  0  0  0
  4 14  1  0  0  0  0
  5  6  2  0  0  0  0
  5 22  1  0  0  0  0
  7  8  2  0  0  0  0
  7 12  1  0  0  0  0
  9  7  1  6  0  0  0
  9 10  1  0  0  0  0
  9 11  1  0  0  0  0
 14 17  1  0  0  0  0
 15 21  1  0  0  0  0
 16 18  1  0  0  0  0
 17 19  2  0  0  0  0
 17 20  1  0  0  0  0
 18 19  1  0  0  0  0
 18 21  2  0  0  0  0
 20 23  2  0  0  0  0
 21 23  1  0  0  0  0
 23 24  1  0  0  0  0
M  END
>  <DATABASE_ID>
DB00509

>  <DATABASE_NAME>
drugbank

>  <SMILES>
Ic1cc(cc(I)c1Oc1cc(I)c(O)c(I)c1)C[C@@H](N)C(O)=O

>  <INCHI_IDENTIFIER>
InChI=1S/C15H11I4NO4/c16-8-4-7(5-9(17)13(8)21)24-14-10(18)1-6(2-11(14)19)3-12(20)15(22)23/h1-2,4-5,12,21H,3,20H2,(H,22,23)/t12-/m1/s1

>  <INCHI_KEY>
InChIKey=XUIIKFGFIJCVMT-GFCCVEGCSA-N

>  <JCHEM_ACCEPTOR_COUNT>
4

>  <JCHEM_AVERAGE_POLARIZABILITY>
49.31181

>  <JCHEM_BIOAVAILABILITY>
1

>  <JCHEM_DONOR_COUNT>
3

>  <JCHEM_EXACT_MASS>
776.68671

>  <JCHEM_FORMAL_CHARGE>
0

>  <JCHEM_FORMULA>
C15H11I4NO4

>  <JCHEM_GHOSE_FILTER>
0

>  <JCHEM_IUPAC>
(2R)-2-amino-3-[4-(4-hydroxy-3,5-diiodophenoxy)-3,5-diiodophenyl]propanoic acid

>  <ALOGPS_LOGP>
1.15

>  <JCHEM_LOGP>
3.7273071

>  <ALOGPS_LOGS>
-4.9400001

>  <JCHEM_MASS>
776.87

>  <JCHEM_MDDR_LIKE_RULE>
0

>  <JCHEM_NUMBER_OF_RINGS>
2

>  <JCHEM_PHYSIOLOGICAL_CHARGE>
0

>  <JCHEM_PKA>
7.4267612

>  <JCHEM_PKA_STRONGEST_ACIDIC>
0.27336746

>  <JCHEM_PKA_STRONGEST_BASIC>
9.4333639

>  <JCHEM_POLAR_SURFACE_AREA>
92.779999

>  <JCHEM_REFRACTIVITY>
126.788

>  <JCHEM_ROTATABLE_BOND_COUNT>
5

>  <JCHEM_RULE_OF_FIVE>
0

>  <ALOGPS_SOLUBILITY>
8.98e-03 g/l

>  <JCHEM_TRADITIONAL_IUPAC>
dextrothyroxine

>  <JCHEM_VEBER_RULE>
0

>  <DRUGBANK_ID>
DB00509

>  <DRUG_GROUPS>
approved

>  <GENERIC_NAME>
Dextrothyroxine

>  <SYNONYMS>
D-thyroxine

>  <BRANDS>
Choloxin; Dynothel; Eulipos; Lisolipin

$$$$
Vancomycin
 OpenBabel02121510022D

101110  0  0  1  0  0  0  0  0999 V2000
    0.0000    0.8250    0.0000 C   0  0  0  0  0  0  0  0  0  0  0  0
    0.7140    0.4120    0.0000 C   0  0  0  0  0  0  0  0  0  0  0  0
   -0.7140    0.4120    0.0000 C   0  0  0  0  0  0  0  0  0  0  0  0
    0.0000   -0.8250    0.0000 C   0  0  0  0  0  0  0  0  0  0  0  0
   -0.7140   -0.4120    0.0000 C   0  0  0  0  0  0  0  0  0  0  0  0
    0.7140   -0.4120    0.0000 C   0  0  0  0  0  0  0  0  0  0  0  0
    1.4290    0.8250    0.0000 O   0  0  0  0  0  0  0  0  0  0  0  0
   -1.4290    0.8250    0.0000 O   0  0  0  0  0  0  0  0  0  0  0  0
   -4.2870   -0.8250    0.0000 C   0  0  1  0  0  0  0  0  0  0  0  0
    4.2870   -0.8250    0.0000 C   0  0  1  0  0  0  0  0  0  0  0  0
   -3.5720   -0.4120    0.0000 C   0  0  0  0  0  0  0  0  0  0  0  0
    3.5720   -0.4120    0.0000 C   0  0  0  0  0  0  0  0  0  0  0  0
   -2.1430    0.4130    0.0000 C   0  0  0  0  0  0  0  0  0  0  0  0
    2.1430    0.4120    0.0000 C   0  0  0  0  0  0  0  0  0  0  0  0
   -2.1430   -0.4120    0.0000 C   0  0  0  0  0  0  0  0  0  0  0  0
    2.8580    0.8250    0.0000 C   0  0  0  0  0  0  0  0  0  0  0  0
    3.5720    0.4120    0.0000 C   0  0  0  0  0  0  0  0  0  0  0  0
    2.8580   -0.8250    0.0000 C   0  0  0  0  0  0  0  0  0  0  0  0
   -3.5720    0.4130    0.0000 C   0  0  0  0  0  0  0  0  0  0  0  0
   -2.8580    0.8250    0.0000 C   0  0  0  0  0  0  0  0  0  0  0  0
    2.1430   -0.4120    0.0000 C   0  0  0  0  0  0  0  0  0  0  0  0
    2.8580    1.6500    0.0000 Cl  0  0  0  0  0  0  0  0  0  0  0  0
   -5.0010   -0.4120    0.0000 O   0  0  0  0  0  0  0  0  0  0  0  0
   -1.4290   -0.8250    0.0000 Cl  0  0  0  0  0  0  0  0  0  0  0  0
    5.0010   -0.4130    0.0000 O   0  0  0  0  0  0  0  0  0  0  0  0
   -0.7140    2.8870    0.0000 C   0  0  1  0  0  0  0  0  0  0  0  0
   -0.7140    2.0620    0.0000 C   0  0  1  0  0  0  0  0  0  0  0  0
   -1.4290    3.3000    0.0000 C   0  0  2  0  0  0  0  0  0  0  0  0
   -1.4290    1.6500    0.0000 O   0  0  0  0  0  0  0  0  0  0  0  0
    0.7150    5.3620    0.0000 C   0  0  1  0  0  0  0  0  0  0  0  0
   -2.1430    2.8880    0.0000 C   0  0  1  0  0  0  0  0  0  0  0  0
    0.0000    4.1250    0.0000 C   0  0  1  0  0  0  0  0  0  0  0  0
   -2.1430    2.0620    0.0000 C   0  0  1  0  0  0  0  0  0  0  0  0
    0.7140    4.5370    0.0000 C   0  0  0  0  0  0  0  0  0  0  0  0
   -0.7140    4.5370    0.0000 O   0  0  0  0  0  0  0  0  0  0  0  0
    0.0000    5.7750    0.0000 C   0  0  1  0  0  0  0  0  0  0  0  0
    0.0000    3.3000    0.0000 O   0  0  0  0  0  0  0  0  0  0  0  0
   -0.7140    5.3620    0.0000 C   0  0  2  0  0  0  0  0  0  0  0  0
    1.5400    5.3620    0.0000 N   0  0  0  0  0  0  0  0  0  0  0  0
   -1.4290    4.1250    0.0000 O   0  0  0  0  0  0  0  0  0  0  0  0
   -2.8580    3.3000    0.0000 O   0  0  0  0  0  0  0  0  0  0  0  0
    0.0000    6.6000    0.0000 O   0  0  0  0  0  0  0  0  0  0  0  0
    1.1270    6.0770    0.0000 C   0  0  0  0  0  0  0  0  0  0  0  0
   -1.4290    5.7750    0.0000 C   0  0  0  0  0  0  0  0  0  0  0  0
    0.0000    1.6500    0.0000 O   0  0  0  0  0  0  0  0  0  0  0  0
   -2.8580    1.6500    0.0000 C   0  0  0  0  0  0  0  0  0  0  0  0
   -3.5720    2.0620    0.0000 O   0  0  0  0  0  0  0  0  0  0  0  0
   -2.8580   -0.8250    0.0000 C   0  0  0  0  0  0  0  0  0  0  0  0
    4.2870   -2.4750    0.0000 C   0  0  2  0  0  0  0  0  0  0  0  0
    0.7140   -2.8870    0.0000 N   0  0  0  0  0  0  0  0  0  0  0  0
    3.5720   -2.8870    0.0000 C   0  0  0  0  0  0  0  0  0  0  0  0
   -0.7140   -2.8870    0.0000 C   0  0  0  0  0  0  0  0  0  0  0  0
    2.8580   -2.4750    0.0000 N   0  0  0  0  0  0  0  0  0  0  0  0
    0.0000   -2.4750    0.0000 C   0  0  1  0  0  0  0  0  0  0  0  0
    1.4290   -2.4750    0.0000 C   0  0  0  0  0  0  0  0  0  0  0  0
    2.1430   -2.8870    0.0000 C   0  0  2  0  0  0  0  0  0  0  0  0
    3.5720   -3.7120    0.0000 O   0  0  0  0  0  0  0  0  0  0  0  0
   -0.7140   -3.7120    0.0000 O   0  0  0  0  0  0  0  0  0  0  0  0
    1.4290   -1.6500    0.0000 O   0  0  0  0  0  0  0  0  0  0  0  0
    2.1430   -3.7120    0.0000 C   0  0  0  0  0  0  0  0  0  0  0  0
    1.4290   -4.1250    0.0000 C   0  0  0  0  0  0  0  0  0  0  0  0
    0.7140   -3.7120    0.0000 N   0  0  0  0  0  0  0  0  0  0  0  0
    1.4290   -4.9500    0.0000 O   0  0  0  0  0  0  0  0  0  0  0  0
    5.0010   -2.8880    0.0000 N   0  0  0  0  0  0  0  0  0  0  0  0
    5.7160   -2.4750    0.0000 C   0  0  0  0  0  0  0  0  0  0  0  0
    6.4300   -2.8880    0.0000 C   0  0  1  0  0  0  0  0  0  0  0  0
    5.7160   -1.6500    0.0000 O   0  0  0  0  0  0  0  0  0  0  0  0
    7.1440   -2.4750    0.0000 C   0  0  0  0  0  0  0  0  0  0  0  0
    6.4300   -3.7120    0.0000 N   0  0  0  0  0  0  0  0  0  0  0  0
    7.8590   -2.8880    0.0000 C   0  0  0  0  0  0  0  0  0  0  0  0
    7.1440   -4.1250    0.0000 C   0  0  0  0  0  0  0  0  0  0  0  0
    7.8590   -3.7120    0.0000 C   0  0  0  0  0  0  0  0  0  0  0  0
    8.5730   -2.4750    0.0000 C   0  0  0  0  0  0  0  0  0  0  0  0
   -4.2870   -2.4750    0.0000 C   0  0  2  0  0  0  0  0  0  0  0  0
   -1.4290   -2.4750    0.0000 N   0  0  0  0  0  0  0  0  0  0  0  0
   -2.1430   -2.8870    0.0000 C   0  0  1  0  0  0  0  0  0  0  0  0
   -5.7160   -2.4750    0.0000 O   0  0  0  0  0  0  0  0  0  0  0  0
   -3.5720   -2.8870    0.0000 N   0  0  0  0  0  0  0  0  0  0  0  0
   -2.8580   -2.4750    0.0000 C   0  0  0  0  0  0  0  0  0  0  0  0
   -2.8580   -1.6500    0.0000 O   0  0  0  0  0  0  0  0  0  0  0  0
   -6.4300   -3.7120    0.0000 C   0  0  0  0  0  0  0  0  0  0  0  0
   -6.4300   -2.8870    0.0000 O   0  0  0  0  0  0  0  0  0  0  0  0
   -7.1450   -4.1250    0.0000 O   0  0  0  0  0  0  0  0  0  0  0  0
   -5.7160   -4.1250    0.0000 C   0  0  1  0  0  0  0  0  0  0  0  0
   -5.0010   -3.7120    0.0000 N   0  0  0  0  0  0  0  0  0  0  0  0
   -5.0010   -2.8870    0.0000 C   0  0  0  0  0  0  0  0  0  0  0  0
   -2.8690   -5.3740    0.0000 C   0  0  0  0  0  0  0  0  0  0  0  0
   -2.1550   -5.7870    0.0000 C   0  0  0  0  0  0  0  0  0  0  0  0
   -2.1550   -4.1370    0.0000 C   0  0  0  0  0  0  0  0  0  0  0  0
   -2.8690   -4.5490    0.0000 C   0  0  0  0  0  0  0  0  0  0  0  0
   -1.4400   -5.3740    0.0000 C   0  0  0  0  0  0  0  0  0  0  0  0
   -1.4400   -4.5490    0.0000 C   0  0  0  0  0  0  0  0  0  0  0  0
   -2.1550   -6.6120    0.0000 O   0  0  0  0  0  0  0  0  0  0  0  0
   -5.7160   -4.9500    0.0000 C   0  0  0  0  0  0  0  0  0  0  0  0
   -6.4300   -5.3620    0.0000 C   0  0  0  0  0  0  0  0  0  0  0  0
   -5.7160   -6.6000    0.0000 C   0  0  0  0  0  0  0  0  0  0  0  0
   -5.0010   -5.3620    0.0000 C   0  0  0  0  0  0  0  0  0  0  0  0
   -6.4300   -6.1870    0.0000 C   0  0  0  0  0  0  0  0  0  0  0  0
   -7.1450   -6.6000    0.0000 O   0  0  0  0  0  0  0  0  0  0  0  0
   -5.0010   -6.1870    0.0000 C   0  0  0  0  0  0  0  0  0  0  0  0
   -4.2870   -6.6000    0.0000 O   0  0  0  0  0  0  0  0  0  0  0  0
  1  2  2  0  0  0  0
  1  3  1  0  0  0  0
  1 45  1  0  0  0  0
  2  6  1  0  0  0  0
  2  7  1  0  0  0  0
  3  5  2  0  0  0  0
  3  8  1  0  0  0  0
  4  5  1  0  0  0  0
  4  6  2  0  0  0  0
  7 14  1  0  0  0  0
  8 13  1  0  0  0  0
  9 11  1  0  0  0  0
  9 23  1  6  0  0  0
  9 74  1  0  0  0  0
 10 12  1  0  0  0  0
 10 25  1  1  0  0  0
 10 49  1  0  0  0  0
 11 19  2  0  0  0  0
 11 48  1  0  0  0  0
 12 17  1  0  0  0  0
 12 18  2  0  0  0  0
 13 15  1  0  0  0  0
 13 20  2  0  0  0  0
 14 16  1  0  0  0  0
 14 21  2  0  0  0  0
 15 24  1  0  0  0  0
 15 48  2  0  0  0  0
 16 17  2  0  0  0  0
 16 22  1  0  0  0  0
 18 21  1  0  0  0  0
 19 20  1  0  0  0  0
 26 27  1  0  0  0  0
 26 28  1  0  0  0  0
 26 37  1  1  0  0  0
 27 29  1  0  0  0  0
 27 45  1  6  0  0  0
 28 31  1  0  0  0  0
 28 40  1  6  0  0  0
 29 33  1  0  0  0  0
 30 34  1  0  0  0  0
 30 36  1  0  0  0  0
 30 39  1  1  0  0  0
 30 43  1  0  0  0  0
 31 33  1  0  0  0  0
 31 41  1  1  0  0  0
 32 34  1  0  0  0  0
 32 35  1  0  0  0  0
 32 37  1  6  0  0  0
 33 46  1  6  0  0  0
 35 38  1  0  0  0  0
 36 38  1  0  0  0  0
 36 42  1  1  0  0  0
 38 44  1  1  0  0  0
 46 47  1  0  0  0  0
 49 51  1  0  0  0  0
 49 64  1  1  0  0  0
 50 55  1  0  0  0  0
 51 53  1  0  0  0  0
 51 57  2  0  0  0  0
 52 54  1  0  0  0  0
 52 58  2  0  0  0  0
 52 75  1  0  0  0  0
 53 56  1  0  0  0  0
 54 50  1  1  0  0  0
 54  4  1  0  0  0  0
 55 56  1  0  0  0  0
 55 59  2  0  0  0  0
 56 60  1  1  0  0  0
 60 61  1  0  0  0  0
 61 62  1  0  0  0  0
 61 63  2  0  0  0  0
 64 65  1  0  0  0  0
 65 67  2  0  0  0  0
 66 65  1  1  0  0  0
 66 68  1  0  0  0  0
 66 69  1  0  0  0  0
 68 70  1  0  0  0  0
 69 71  1  0  0  0  0
 70 72  1  0  0  0  0
 70 73  1  0  0  0  0
 74 78  1  6  0  0  0
 74 86  1  0  0  0  0
 76 75  1  6  0  0  0
 76 79  1  0  0  0  0
 76 89  1  0  0  0  0
 77 86  2  0  0  0  0
 78 79  1  0  0  0  0
 79 80  2  0  0  0  0
 81 82  2  0  0  0  0
 81 83  1  0  0  0  0
 84 81  1  1  0  0  0
 84 85  1  0  0  0  0
 84 94  1  0  0  0  0
 85 86  1  0  0  0  0
 87 88  1  0  0  0  0
 87 90  2  0  0  0  0
 87 97  1  0  0  0  0
 88 91  2  0  0  0  0
 88 93  1  0  0  0  0
 89 90  1  0  0  0  0
 89 92  2  0  0  0  0
 91 92  1  0  0  0  0
 94 95  1  0  0  0  0
 94 97  2  0  0  0  0
 95 98  2  0  0  0  0
 96 98  1  0  0  0  0
 96100  2  0  0  0  0
 97100  1  0  0  0  0
 98 99  1  0  0  0  0
100101  1  0  0  0  0
M  END
>  <DATABASE_ID>
DB00512

>  <DATABASE_NAME>
drugbank

>  <SMILES>
Clc1c2Oc3cc4[C@@H](NC(=O)[C@@H](NC(=O)[C@H](NC(=O)[C@H](NC)CC(C)C)[C@H](O)c(c1)cc2)CC(=O)N)C(=O)N[C@@H]1c2cc(-c5c(cc(O)cc5O)[C@H](NC(=O)[C@@H](NC1=O)[C@H](O)c1cc(Cl)c(Oc(c4)c3O[C@@H]3O[C@H](CO)[C@@H](O)[C@H](O)[C@H]3O[C@@H]3O[C@@H](C)[C@@H](O)[C@@](N)(C3)C)cc1)C(O)=O)c(O)cc2

>  <INCHI_IDENTIFIER>
InChI=1S/C66H75Cl2N9O24/c1-23(2)12-34(71-5)58(88)76-49-51(83)26-7-10-38(32(67)14-26)97-40-16-28-17-41(55(40)101-65-56(54(86)53(85)42(22-78)99-65)100-44-21-66(4,70)57(87)24(3)96-44)98-39-11-8-27(15-33(39)68)52(84)50-63(93)75-48(64(94)95)31-18-29(79)19-37(81)45(31)30-13-25(6-9-36(30)80)46(60(90)77-50)74-61(91)47(28)73-59(89)35(20-43(69)82)72-62(49)92/h6-11,13-19,23-24,34-35,42,44,46-54,56-57,65,71,78-81,83-87H,12,20-22,70H2,1-5H3,(H2,69,82)(H,72,92)(H,73,89)(H,74,91)(H,75,93)(H,76,88)(H,77,90)(H,94,95)/t24-,34+,35-,42+,44-,46+,47+,48-,49+,50-,51+,52+,53+,54-,56+,57+,65-,66-/m0/s1

>  <INCHI_KEY>
InChIKey=MYPYJXKWCTUITO-LYRMYLQWSA-N

>  <JCHEM_ACCEPTOR_COUNT>
24

>  <JCHEM_AVERAGE_POLARIZABILITY>
138.70367

>  <JCHEM_BIOAVAILABILITY>
0

>  <JCHEM_DONOR_COUNT>
19

>  <JCHEM_EXACT_MASS>
1447.4302

>  <JCHEM_FORMAL_CHARGE>
0

>  <JCHEM_FORMULA>
C66H75Cl2N9O24

>  <JCHEM_GHOSE_FILTER>
0

>  <JCHEM_IUPAC>
(1S,2R,18R,19R,22S,25R,28R,40S)-48-{[(2S,3R,4S,5S,6R)-3-{[(2S,4S,5S,6S)-4-amino-5-hydroxy-4,6-dimethyloxan-2-yl]oxy}-4,5-dihydroxy-6-(hydroxymethyl)oxan-2-yl]oxy}-22-(carbamoylmethyl)-5,47-dichloro-2,18,32,35,37-pentahydroxy-19-[(2R)-4-methyl-2-(methylamino)pentanamido]-20,23,26,42,44-pentaoxo-7,13-dioxa-21,24,27,41,43-pentaazaoctacyclo[26.14.2.2^{3,6}.2^{14,17}.1^{8,12}.1^{29,33}.0^{10,25}.0^{34,39}]pentaconta-3,5,8,10,12(48),14,16,29(45),30,32,34,36,38,46,49-pentadecaene-40-carboxylic acid

>  <ALOGPS_LOGP>
1.11

>  <JCHEM_LOGP>
-4.4066181

>  <ALOGPS_LOGS>
-3.8099999

>  <JCHEM_MASS>
1449.254

>  <JCHEM_MDDR_LIKE_RULE>
1

>  <JCHEM_NUMBER_OF_RINGS>
10

>  <JCHEM_PHYSIOLOGICAL_CHARGE>
1

>  <JCHEM_PKA>
8.7783003

>  <JCHEM_PKA_STRONGEST_ACIDIC>
2.9872115

>  <JCHEM_PKA_STRONGEST_BASIC>
9.9330235

>  <JCHEM_POLAR_SURFACE_AREA>
530.48999

>  <JCHEM_REFRACTIVITY>
346.60849

>  <JCHEM_ROTATABLE_BOND_COUNT>
13

>  <JCHEM_RULE_OF_FIVE>
0

>  <ALOGPS_SOLUBILITY>
2.25e-01 g/l

>  <JCHEM_TRADITIONAL_IUPAC>
vancomycin

>  <JCHEM_VEBER_RULE>
0

>  <DRUGBANK_ID>
DB00512

>  <DRUG_GROUPS>
approved

>  <GENERIC_NAME>
Vancomycin

>  <BRANDS>
COVANC; Vancocin; Vancoled

>  <SALTS>
Vancomycin Hydrochloride

$$$$
Aminocaproic Acid
 OpenBabel02121510022D

  9  8  0  0  0  0  0  0  0  0999 V2000
    2.0930    0.6190    0.0000 O   0  0  0  0  0  0  0  0  0  0  0  0
    2.8080   -0.6190    0.0000 O   0  0  0  0  0  0  0  0  0  0  0  0
    7.0940    0.2060    0.0000 N   0  0  0  0  0  0  0  0  0  0  0  0
    4.9510    0.6190    0.0000 C   0  0  0  0  0  0  0  0  0  0  0  0
    4.2360    0.2060    0.0000 C   0  0  0  0  0  0  0  0  0  0  0  0
    5.6660    0.2060    0.0000 C   0  0  0  0  0  0  0  0  0  0  0  0
    3.5220    0.6190    0.0000 C   0  0  0  0  0  0  0  0  0  0  0  0
    6.3800    0.6190    0.0000 C   0  0  0  0  0  0  0  0  0  0  0  0
    2.8080    0.2060    0.0000 C   0  0  0  0  0  0  0  0  0  0  0  0
  1  9  1  0  0  0  0
  2  9  2  0  0  0  0
  3  8  1  0  0  0  0
  4  5  1  0  0  0  0
  4  6  1  0  0  0  0
  5  7  1  0  0  0  0
  6  8  1  0  0  0  0
  7  9  1  0  0  0  0
M  END
>  <DATABASE_ID>
DB00513

>  <DATABASE_NAME>
drugbank

>  <SMILES>
OC(=O)CCCCCN

>  <INCHI_IDENTIFIER>
InChI=1S/C6H13NO2/c7-5-3-1-2-4-6(8)9/h1-5,7H2,(H,8,9)

>  <INCHI_KEY>
InChIKey=SLXKOJJOQWFEFD-UHFFFAOYSA-N

>  <JCHEM_ACCEPTOR_COUNT>
3

>  <JCHEM_AVERAGE_POLARIZABILITY>
14.711241

>  <JCHEM_BIOAVAILABILITY>
1

>  <JCHEM_DONOR_COUNT>
2

>  <JCHEM_EXACT_MASS>
131.09464

>  <JCHEM_FORMAL_CHARGE>
0

>  <JCHEM_FORMULA>
C6H13NO2

>  <JCHEM_GHOSE_FILTER>
0

>  <JCHEM_IUPAC>
6-aminohexanoic acid

>  <ALOGPS_LOGP>
-2.6900001

>  <JCHEM_LOGP>
-1.9971552

>  <ALOGPS_LOGS>
-0.46000001

>  <JCHEM_MASS>
131.1729

>  <JCHEM_MDDR_LIKE_RULE>
0

>  <JCHEM_NUMBER_OF_RINGS>
0

>  <JCHEM_PHYSIOLOGICAL_CHARGE>
0

>  <JCHEM_PKA_STRONGEST_ACIDIC>
4.72614

>  <JCHEM_PKA_STRONGEST_BASIC>
10.205507

>  <JCHEM_POLAR_SURFACE_AREA>
63.32

>  <JCHEM_REFRACTIVITY>
34.659801

>  <JCHEM_ROTATABLE_BOND_COUNT>
5

>  <JCHEM_RULE_OF_FIVE>
1

>  <ALOGPS_SOLUBILITY>
4.52e+01 g/l

>  <JCHEM_TRADITIONAL_IUPAC>
aminocaproic acid

>  <JCHEM_VEBER_RULE>
0

>  <DRUGBANK_ID>
DB00513

>  <DRUG_GROUPS>
approved; investigational

>  <GENERIC_NAME>
Aminocaproic Acid

>  <SYNONYMS>
6-aminohexanoic acid; Acide aminocaproïque; Ácido aminocapróico; Acidum Aminocaproicum; Aminocapronsäure; Eaca; EACA; Epsilcapramine; Epsilon-Aminocaproic Acid

>  <BRANDS>
Acepramin; Amicar; Amocap; Caproamin; Caprocat; Caprolisin; E-Capro; Epsicaprom; Hemocid; Inselon; Ipron; Ipsilon; Kai Nai Yin; Minocap; Plaslloid; Resplamin

$$$$
Dextromethorphan
 OpenBabel02121510022D

 21 24  0  0  1  0  0  0  0  0999 V2000
    6.6800   -1.8120    0.0000 C   0  0  0  0  0  0  0  0  0  0  0  0
    5.9680   -1.4050    0.0000 C   0  0  0  0  0  0  0  0  0  0  0  0
    5.2560   -1.8120    0.0000 C   0  0  0  0  0  0  0  0  0  0  0  0
    5.2560   -2.6350    0.0000 C   0  0  0  0  0  0  0  0  0  0  0  0
    5.2560   -4.2820    0.0000 C   0  0  0  0  0  0  0  0  0  0  0  0
    5.2560   -5.0960    0.0000 C   0  0  0  0  0  0  0  0  0  0  0  0
    5.9680   -5.5120    0.0000 C   0  0  0  0  0  0  0  0  0  0  0  0
    6.6800   -5.0960    0.0000 C   0  0  0  0  0  0  0  0  0  0  0  0
    7.3920   -3.8660    0.0000 C   0  0  2  0  0  0  0  0  0  0  0  0
    7.3930   -3.0520    0.0000 C   0  0  0  0  0  0  0  0  0  0  0  0
    6.6800   -2.6350    0.0000 C   0  0  0  0  0  0  0  0  0  0  0  0
    5.9680   -3.0520    0.0000 C   0  0  0  0  0  0  0  0  0  0  0  0
    5.9680   -3.8660    0.0000 C   0  0  2  0  0  0  0  0  0  0  0  0
    6.6800   -4.2820    0.0000 C   0  0  1  0  0  0  0  0  0  0  0  0
    6.5690   -3.4490    0.0000 C   0  0  0  0  0  0  0  0  0  0  0  0
    8.0950   -3.4490    0.0000 C   0  0  0  0  0  0  0  0  0  0  0  0
    8.1050   -4.2820    0.0000 N   0  0  0  0  0  0  0  0  0  0  0  0
    7.4020   -4.7260    0.0000 H   0  0  0  0  0  0  0  0  0  0  0  0
    4.5360   -1.3940    0.0000 O   0  0  0  0  0  0  0  0  0  0  0  0
    3.8140   -1.8090    0.0000 C   0  0  0  0  0  0  0  0  0  0  0  0
    8.8300   -4.6760    0.0000 C   0  0  0  0  0  0  0  0  0  0  0  0
  1  2  1  0  0  0  0
  1 11  2  0  0  0  0
  2  3  2  0  0  0  0
  3  4  1  0  0  0  0
  3 19  1  0  0  0  0
  4 12  2  0  0  0  0
  5  6  1  0  0  0  0
  6  7  1  0  0  0  0
  7  8  1  0  0  0  0
  8 14  1  0  0  0  0
  9 10  1  1  0  0  0
  9 14  1  0  0  0  0
  9 17  1  0  0  0  0
 10 11  1  0  0  0  0
 11 12  1  0  0  0  0
 12 13  1  0  0  0  0
 13  5  1  1  0  0  0
 13 14  1  0  0  0  0
 13 15  1  0  0  0  0
 14 18  1  1  0  0  0
 15 16  1  0  0  0  0
 16 17  1  0  0  0  0
 17 21  1  0  0  0  0
 19 20  1  0  0  0  0
M  END
>  <DATABASE_ID>
DB00514

>  <DATABASE_NAME>
drugbank

>  <SMILES>
O(C)c1cc2[C@@]34[C@H]([C@H](N(CC3)C)Cc2cc1)CCCC4

>  <INCHI_IDENTIFIER>
InChI=1/C18H25NO/c1-19-10-9-18-8-4-3-5-15(18)17(19)11-13-6-7-14(20-2)12-16(13)18/h6-7,12,15,17H,3-5,8-11H2,1-2H3/t15-,17+,18+/s2

>  <INCHI_KEY>
InChIKey=MKXZASYAUGDDCJ-HPAQEFICNA-N

>  <JCHEM_ACCEPTOR_COUNT>
2

>  <JCHEM_AVERAGE_POLARIZABILITY>
31.74337

>  <JCHEM_BIOAVAILABILITY>
1

>  <JCHEM_DONOR_COUNT>
0

>  <JCHEM_EXACT_MASS>
271.1936

>  <JCHEM_FORMAL_CHARGE>
0

>  <JCHEM_FORMULA>
C18H25NO

>  <JCHEM_GHOSE_FILTER>
1

>  <JCHEM_IUPAC>
(1R,9R,10R)-4-methoxy-17-methyl-17-azatetracyclo[7.5.3.0¹,¹⁰.0²,⁷]heptadeca-2,4,6-triene

>  <ALOGPS_LOGP>
3.75

>  <JCHEM_LOGP>
3.4937744

>  <ALOGPS_LOGS>
-4.5

>  <JCHEM_MASS>
271.39719

>  <JCHEM_MDDR_LIKE_RULE>
0

>  <JCHEM_NUMBER_OF_RINGS>
4

>  <JCHEM_PHYSIOLOGICAL_CHARGE>
1

>  <JCHEM_PKA_STRONGEST_BASIC>
9.8463039

>  <JCHEM_POLAR_SURFACE_AREA>
12.47

>  <JCHEM_REFRACTIVITY>
82.563202

>  <JCHEM_ROTATABLE_BOND_COUNT>
1

>  <JCHEM_RULE_OF_FIVE>
1

>  <ALOGPS_SOLUBILITY>
8.51e-03 g/l

>  <JCHEM_TRADITIONAL_IUPAC>
levomethorphan

>  <JCHEM_VEBER_RULE>
1

>  <DRUGBANK_ID>
DB00514

>  <DRUG_GROUPS>
approved

>  <GENERIC_NAME>
Dextromethorphan

>  <SYNONYMS>
d-Methorphan; delta-Methorphan; Dextromethorfan; Dextromethorphan; Dextrométhorphane; Dextromethorphanum; Dextrometorfano; DM; DMHM; DXM

>  <BRANDS>
Balminil DM; Benylin DM; Delsym; Koffex DM; Romilar; Triaminic; Vicks Formula 44

>  <SALTS>
Dextromethorphan hydrobromide

$$$$
Albendazole
 OpenBabel02121510022D

 18 19  0  0  0  0  0  0  0  0999 V2000
    3.7940    0.9640    0.0000 S   0  0  0  0  0  0  0  0  0  0  0  0
    9.2620   -0.5750    0.0000 O   0  0  0  0  0  0  0  0  0  0  0  0
    8.0240   -1.2900    0.0000 O   0  0  0  0  0  0  0  0  0  0  0  0
    6.7180    0.8030    0.0000 N   0  0  0  0  0  0  0  0  0  0  0  0
    6.7180   -0.5240    0.0000 N   0  0  0  0  0  0  0  0  0  0  0  0
    8.0240    0.1390    0.0000 N   0  0  0  0  0  0  0  0  0  0  0  0
    5.9370    0.5520    0.0000 C   0  0  0  0  0  0  0  0  0  0  0  0
    5.9370   -0.2730    0.0000 C   0  0  0  0  0  0  0  0  0  0  0  0
    4.5080    0.5520    0.0000 C   0  0  0  0  0  0  0  0  0  0  0  0
    5.2220    0.9640    0.0000 C   0  0  0  0  0  0  0  0  0  0  0  0
    5.2220   -0.6860    0.0000 C   0  0  0  0  0  0  0  0  0  0  0  0
    7.1990    0.1390    0.0000 C   0  0  0  0  0  0  0  0  0  0  0  0
    3.0790    0.5520    0.0000 C   0  0  0  0  0  0  0  0  0  0  0  0
    4.5080   -0.2730    0.0000 C   0  0  0  0  0  0  0  0  0  0  0  0
    2.3640    0.9640    0.0000 C   0  0  0  0  0  0  0  0  0  0  0  0
    1.6500    0.5520    0.0000 C   0  0  0  0  0  0  0  0  0  0  0  0
    8.4370   -0.5750    0.0000 C   0  0  0  0  0  0  0  0  0  0  0  0
    9.6740   -1.2900    0.0000 C   0  0  0  0  0  0  0  0  0  0  0  0
  1  9  1  0  0  0  0
  1 13  1  0  0  0  0
  2 17  1  0  0  0  0
  2 18  1  0  0  0  0
  3 17  2  0  0  0  0
  4  7  1  0  0  0  0
  4 12  1  0  0  0  0
  5  8  1  0  0  0  0
  5 12  2  0  0  0  0
  6 12  1  0  0  0  0
  6 17  1  0  0  0  0
  7  8  1  0  0  0  0
  7 10  2  0  0  0  0
  8 11  2  0  0  0  0
  9 10  1  0  0  0  0
  9 14  2  0  0  0  0
 11 14  1  0  0  0  0
 13 15  1  0  0  0  0
 15 16  1  0  0  0  0
M  END
>  <DATABASE_ID>
DB00518

>  <DATABASE_NAME>
drugbank

>  <SMILES>
S(CCC)c1cc2[nH]c(nc2cc1)NC(OC)=O

>  <INCHI_IDENTIFIER>
InChI=1S/C12H15N3O2S/c1-3-6-18-8-4-5-9-10(7-8)14-11(13-9)15-12(16)17-2/h4-5,7H,3,6H2,1-2H3,(H2,13,14,15,16)

>  <INCHI_KEY>
InChIKey=HXHWSAZORRCQMX-UHFFFAOYSA-N

>  <JCHEM_ACCEPTOR_COUNT>
3

>  <JCHEM_AVERAGE_POLARIZABILITY>
29.299526

>  <JCHEM_BIOAVAILABILITY>
1

>  <JCHEM_DONOR_COUNT>
2

>  <JCHEM_EXACT_MASS>
265.0885

>  <JCHEM_FORMAL_CHARGE>
0

>  <JCHEM_FORMULA>
C12H15N3O2S

>  <JCHEM_GHOSE_FILTER>
1

>  <JCHEM_IUPAC>
methyl N-[6-(propylsulfanyl)-1H-1,3-benzodiazol-2-yl]carbamate

>  <ALOGPS_LOGP>
3.22

>  <JCHEM_LOGP>
3.204525

>  <ALOGPS_LOGS>
-4.0700002

>  <JCHEM_MASS>
265.33099

>  <JCHEM_MDDR_LIKE_RULE>
0

>  <JCHEM_NUMBER_OF_RINGS>
2

>  <JCHEM_PHYSIOLOGICAL_CHARGE>
0

>  <JCHEM_PKA>
13.942175

>  <JCHEM_PKA_STRONGEST_ACIDIC>
9.5130215

>  <JCHEM_PKA_STRONGEST_BASIC>
4.2742944

>  <JCHEM_POLAR_SURFACE_AREA>
67.010002

>  <JCHEM_REFRACTIVITY>
73.009102

>  <JCHEM_ROTATABLE_BOND_COUNT>
5

>  <JCHEM_RULE_OF_FIVE>
1

>  <ALOGPS_SOLUBILITY>
2.28e-02 g/l

>  <JCHEM_TRADITIONAL_IUPAC>
albendazole

>  <JCHEM_VEBER_RULE>
0

>  <DRUGBANK_ID>
DB00518

>  <DRUG_GROUPS>
approved

>  <GENERIC_NAME>
Albendazole

>  <SYNONYMS>
Albendazol; Albendazol; Albendazole; Albendazolum; Ricobendazole; Rycobendazole

>  <BRANDS>
Abentel; ABZ; Acure; Adazol; AL; Albenza; Band; Bandy; Bazole; Ben-A; Benrod; Bentil; Benzol; Benzole; Bevindazol; Biwom; Bruzol; Buxol; Cental; Champs; Ciclopar; Cidazole; Clearworm; Dalben; Despar; Eskazole; Zentel; Zolben

$$$$
Trandolapril
 OpenBabel02121510022D

 33 35  0  0  1  0  0  0  0  0999 V2000
    7.0830   -1.0980    0.0000 O   0  0  0  0  0  0  0  0  0  0  0  0
    7.7380   -3.4300    0.0000 O   0  0  0  0  0  0  0  0  0  0  0  0
    7.7380   -2.0020    0.0000 O   0  0  0  0  0  0  0  0  0  0  0  0
    5.1360    2.1430    0.0000 O   0  0  0  0  0  0  0  0  0  0  0  0
    6.4940    1.6990    0.0000 O   0  0  0  0  0  0  0  0  0  0  0  0
    6.0200   -2.0520    0.0000 N   0  0  0  0  0  0  0  0  0  0  0  0
    5.9810    0.1300    0.0000 N   0  0  0  0  0  0  0  0  0  0  0  0
    5.2390   -3.1280    0.0000 C   0  0  1  0  0  0  0  0  0  0  0  0
    5.2390   -2.3040    0.0000 C   0  0  2  0  0  0  0  0  0  0  0  0
    6.0200   -3.3800    0.0000 C   0  0  0  0  0  0  0  0  0  0  0  0
    6.5010   -2.7160    0.0000 C   0  0  1  0  0  0  0  0  0  0  0  0
    4.5240   -3.5410    0.0000 C   0  0  0  0  0  0  0  0  0  0  0  0
    4.5240   -1.8910    0.0000 C   0  0  0  0  0  0  0  0  0  0  0  0
    3.8100   -3.1280    0.0000 C   0  0  0  0  0  0  0  0  0  0  0  0
    3.8100   -2.3040    0.0000 C   0  0  0  0  0  0  0  0  0  0  0  0
    6.2760   -1.2680    0.0000 C   0  0  0  0  0  0  0  0  0  0  0  0
    7.3260   -2.7160    0.0000 C   0  0  0  0  0  0  0  0  0  0  0  0
    5.7250   -0.6540    0.0000 C   0  0  2  0  0  0  0  0  0  0  0  0
    4.9180   -0.8240    0.0000 C   0  0  0  0  0  0  0  0  0  0  0  0
    5.4300    0.7440    0.0000 C   0  0  1  0  0  0  0  0  0  0  0  0
    4.6230    0.5740    0.0000 C   0  0  0  0  0  0  0  0  0  0  0  0
    5.6860    1.5290    0.0000 C   0  0  0  0  0  0  0  0  0  0  0  0
    4.0720    1.1880    0.0000 C   0  0  0  0  0  0  0  0  0  0  0  0
    3.2650    1.0180    0.0000 C   0  0  0  0  0  0  0  0  0  0  0  0
    5.3920    2.9270    0.0000 C   0  0  0  0  0  0  0  0  0  0  0  0
    2.7140    1.6320    0.0000 C   0  0  0  0  0  0  0  0  0  0  0  0
    3.0080    0.2340    0.0000 C   0  0  0  0  0  0  0  0  0  0  0  0
    1.9060    1.4620    0.0000 C   0  0  0  0  0  0  0  0  0  0  0  0
    2.2010    0.0640    0.0000 C   0  0  0  0  0  0  0  0  0  0  0  0
    4.8410    3.5410    0.0000 C   0  0  0  0  0  0  0  0  0  0  0  0
    1.6500    0.6780    0.0000 C   0  0  0  0  0  0  0  0  0  0  0  0
    5.3090   -3.7850    0.0000 H   0  0  0  0  0  0  0  0  0  0  0  0
    5.3090   -1.6470    0.0000 H   0  0  0  0  0  0  0  0  0  0  0  0
  1 16  2  0  0  0  0
  2 17  1  0  0  0  0
  3 17  2  0  0  0  0
  4 22  1  0  0  0  0
  4 25  1  0  0  0  0
  5 22  2  0  0  0  0
  6  9  1  0  0  0  0
  6 11  1  0  0  0  0
  6 16  1  0  0  0  0
  8  9  1  0  0  0  0
  8 10  1  0  0  0  0
  8 12  1  0  0  0  0
  8 32  1  6  0  0  0
  9 13  1  0  0  0  0
  9 33  1  1  0  0  0
 10 11  1  0  0  0  0
 11 17  1  6  0  0  0
 12 14  1  0  0  0  0
 13 15  1  0  0  0  0
 14 15  1  0  0  0  0
 16 18  1  0  0  0  0
 18  7  1  6  0  0  0
 18 19  1  0  0  0  0
 20  7  1  1  0  0  0
 20 21  1  0  0  0  0
 20 22  1  0  0  0  0
 21 23  1  0  0  0  0
 23 24  1  0  0  0  0
 24 26  2  0  0  0  0
 24 27  1  0  0  0  0
 25 30  1  0  0  0  0
 26 28  1  0  0  0  0
 27 29  2  0  0  0  0
 28 31  2  0  0  0  0
 29 31  1  0  0  0  0
M  END
>  <DATABASE_ID>
DB00519

>  <DATABASE_NAME>
drugbank

>  <SMILES>
O(CC)C(=O)[C@@H](N[C@H](C(=O)N1[C@@H]2[C@@H](C[C@H]1C(O)=O)CCCC2)C)CCc1ccccc1

>  <INCHI_IDENTIFIER>
InChI=1S/C24H34N2O5/c1-3-31-24(30)19(14-13-17-9-5-4-6-10-17)25-16(2)22(27)26-20-12-8-7-11-18(20)15-21(26)23(28)29/h4-6,9-10,16,18-21,25H,3,7-8,11-15H2,1-2H3,(H,28,29)/t16-,18+,19-,20-,21-/m0/s1

>  <INCHI_KEY>
InChIKey=VXFJYXUZANRPDJ-WTNASJBWSA-N

>  <JCHEM_ACCEPTOR_COUNT>
5

>  <JCHEM_AVERAGE_POLARIZABILITY>
46.790829

>  <JCHEM_BIOAVAILABILITY>
1

>  <JCHEM_DONOR_COUNT>
2

>  <JCHEM_EXACT_MASS>
430.24677

>  <JCHEM_FORMAL_CHARGE>
0

>  <JCHEM_FORMULA>
C24H34N2O5

>  <JCHEM_GHOSE_FILTER>
1

>  <JCHEM_IUPAC>
(2S,3aR,7aS)-1-[(2S)-2-{[(2S)-1-ethoxy-1-oxo-4-phenylbutan-2-yl]amino}propanoyl]-octahydro-1H-indole-2-carboxylic acid

>  <ALOGPS_LOGP>
1.3099999

>  <JCHEM_LOGP>
1.9473588

>  <ALOGPS_LOGS>
-4.3200002

>  <JCHEM_MASS>
430.5372

>  <JCHEM_MDDR_LIKE_RULE>
1

>  <JCHEM_NUMBER_OF_RINGS>
3

>  <JCHEM_PHYSIOLOGICAL_CHARGE>
-1

>  <JCHEM_PKA_STRONGEST_ACIDIC>
3.7999179

>  <JCHEM_PKA_STRONGEST_BASIC>
5.2056489

>  <JCHEM_POLAR_SURFACE_AREA>
95.940002

>  <JCHEM_REFRACTIVITY>
115.7878

>  <JCHEM_ROTATABLE_BOND_COUNT>
10

>  <JCHEM_RULE_OF_FIVE>
1

>  <ALOGPS_SOLUBILITY>
2.07e-02 g/l

>  <JCHEM_TRADITIONAL_IUPAC>
trandolapril

>  <JCHEM_VEBER_RULE>
0

>  <DRUGBANK_ID>
DB00519

>  <DRUG_GROUPS>
approved

>  <GENERIC_NAME>
Trandolapril

>  <SYNONYMS>
Trandolaprilum

>  <BRANDS>
Mavik

$$$$
Alitretinoin
 OpenBabel02121510022D

 22 22  0  0  0  0  0  0  0  0999 V2000
    0.9570   -5.0150    0.0000 O   0  0  0  0  0  0  0  0  0  0  0  0
    2.3860   -5.0150    0.0000 O   0  0  0  0  0  0  0  0  0  0  0  0
    6.6730   -0.8900    0.0000 C   0  0  0  0  0  0  0  0  0  0  0  0
    7.3880   -1.3020    0.0000 C   0  0  0  0  0  0  0  0  0  0  0  0
    7.3880   -2.1270    0.0000 C   0  0  0  0  0  0  0  0  0  0  0  0
    5.9590   -1.3020    0.0000 C   0  0  0  0  0  0  0  0  0  0  0  0
    6.6730   -2.5400    0.0000 C   0  0  0  0  0  0  0  0  0  0  0  0
    5.9590   -2.1270    0.0000 C   0  0  0  0  0  0  0  0  0  0  0  0
    7.0600   -0.1610    0.0000 C   0  0  0  0  0  0  0  0  0  0  0  0
    6.2860   -0.1610    0.0000 C   0  0  0  0  0  0  0  0  0  0  0  0
    5.2440   -0.8900    0.0000 C   0  0  0  0  0  0  0  0  0  0  0  0
    5.2440   -2.5400    0.0000 C   0  0  0  0  0  0  0  0  0  0  0  0
    4.5300   -1.3020    0.0000 C   0  0  0  0  0  0  0  0  0  0  0  0
    3.8150   -0.8900    0.0000 C   0  0  0  0  0  0  0  0  0  0  0  0
    3.8150   -0.0650    0.0000 C   0  0  0  0  0  0  0  0  0  0  0  0
    3.1010   -1.3020    0.0000 C   0  0  0  0  0  0  0  0  0  0  0  0
    3.1010   -2.1270    0.0000 C   0  0  0  0  0  0  0  0  0  0  0  0
    2.3860   -2.5400    0.0000 C   0  0  0  0  0  0  0  0  0  0  0  0
    2.3860   -3.3650    0.0000 C   0  0  0  0  0  0  0  0  0  0  0  0
    3.1010   -3.7770    0.0000 C   0  0  0  0  0  0  0  0  0  0  0  0
    1.6720   -3.7770    0.0000 C   0  0  0  0  0  0  0  0  0  0  0  0
    1.6720   -4.6020    0.0000 C   0  0  0  0  0  0  0  0  0  0  0  0
  1 22  1  0  0  0  0
  2 22  2  0  0  0  0
  3  4  1  0  0  0  0
  3  6  1  0  0  0  0
  3  9  1  0  0  0  0
  3 10  1  0  0  0  0
  4  5  1  0  0  0  0
  5  7  1  0  0  0  0
  6  8  2  0  0  0  0
  6 11  1  0  0  0  0
  7  8  1  0  0  0  0
  8 12  1  0  0  0  0
 11 13  2  0  0  0  0
 13 14  1  0  0  0  0
 14 15  1  0  0  0  0
 14 16  2  0  0  0  0
 16 17  1  0  0  0  0
 17 18  2  0  0  0  0
 18 19  1  0  0  0  0
 19 20  1  0  0  0  0
 19 21  2  0  0  0  0
 21 22  1  0  0  0  0
M  END
>  <DATABASE_ID>
DB00523

>  <DATABASE_NAME>
drugbank

>  <SMILES>
OC(=O)\C=C(\C=C\C=C(\C=C\C=1C(CCCC=1C)(C)C)/C)/C

>  <INCHI_IDENTIFIER>
InChI=1S/C20H28O2/c1-15(8-6-9-16(2)14-19(21)22)11-12-18-17(3)10-7-13-20(18,4)5/h6,8-9,11-12,14H,7,10,13H2,1-5H3,(H,21,22)/b9-6+,12-11+,15-8-,16-14+

>  <INCHI_KEY>
InChIKey=SHGAZHPCJJPHSC-ZVCIMWCZSA-N

>  <JCHEM_ACCEPTOR_COUNT>
2

>  <JCHEM_AVERAGE_POLARIZABILITY>
35.951279

>  <JCHEM_BIOAVAILABILITY>
1

>  <JCHEM_DONOR_COUNT>
1

>  <JCHEM_EXACT_MASS>
300.20892

>  <JCHEM_FORMAL_CHARGE>
0

>  <JCHEM_FORMULA>
C20H28O2

>  <JCHEM_GHOSE_FILTER>
1

>  <JCHEM_IUPAC>
(2E,4E,6Z,8E)-3,7-dimethyl-9-(2,6,6-trimethylcyclohex-1-en-1-yl)nona-2,4,6,8-tetraenoic acid

>  <ALOGPS_LOGP>
5.6599998

>  <JCHEM_LOGP>
5.0143676

>  <ALOGPS_LOGS>
-4.8000002

>  <JCHEM_MASS>
300.43509

>  <JCHEM_MDDR_LIKE_RULE>
0

>  <JCHEM_NUMBER_OF_RINGS>
1

>  <JCHEM_PHYSIOLOGICAL_CHARGE>
-1

>  <JCHEM_PKA_STRONGEST_ACIDIC>
4.9966478

>  <JCHEM_POLAR_SURFACE_AREA>
37.299999

>  <JCHEM_REFRACTIVITY>
97.790802

>  <JCHEM_ROTATABLE_BOND_COUNT>
5

>  <JCHEM_RULE_OF_FIVE>
0

>  <ALOGPS_SOLUBILITY>
4.77e-03 g/l

>  <JCHEM_TRADITIONAL_IUPAC>
9-cis-retinoic acid

>  <JCHEM_VEBER_RULE>
1

>  <DRUGBANK_ID>
DB00523

>  <DRUG_GROUPS>
approved; investigational

>  <GENERIC_NAME>
Alitretinoin

>  <SYNONYMS>
9-cis-Retinoic acid; Alitretinoin; Alitretinoína; Alitrétinoïne; Alitretinoinum

>  <BRANDS>
Panretin; Toctino

$$$$
Metolazone
 OpenBabel02121510022D

 24 26  0  0  1  0  0  0  0  0999 V2000
    7.4200    1.2080    0.0000 Cl  0  0  0  0  0  0  0  0  0  0  0  0
    7.4200   -0.4820    0.0000 S   0  0  0  0  0  0  0  0  0  0  0  0
    4.5080   -1.2870    0.0000 O   0  0  0  0  0  0  0  0  0  0  0  0
    7.8360    0.2310    0.0000 O   0  0  0  0  0  0  0  0  0  0  0  0
    7.0050   -1.1950    0.0000 O   0  0  0  0  0  0  0  0  0  0  0  0
    3.7930   -0.0500    0.0000 N   0  0  0  0  0  0  0  0  0  0  0  0
    4.5080    1.1880    0.0000 N   0  0  0  0  0  0  0  0  0  0  0  0
    8.1330   -0.8970    0.0000 N   0  0  0  0  0  0  0  0  0  0  0  0
    3.7930    0.7760    0.0000 C   0  0  3  0  0  0  0  0  0  0  0  0
    5.2220    0.7760    0.0000 C   0  0  0  0  0  0  0  0  0  0  0  0
    5.2220   -0.0500    0.0000 C   0  0  0  0  0  0  0  0  0  0  0  0
    4.5080   -0.4620    0.0000 C   0  0  0  0  0  0  0  0  0  0  0  0
    3.0790   -0.4620    0.0000 C   0  0  0  0  0  0  0  0  0  0  0  0
    3.0790    1.1880    0.0000 C   0  0  0  0  0  0  0  0  0  0  0  0
    5.9600   -0.4910    0.0000 C   0  0  0  0  0  0  0  0  0  0  0  0
    5.9600    1.2170    0.0000 C   0  0  0  0  0  0  0  0  0  0  0  0
    6.7070   -0.0670    0.0000 C   0  0  0  0  0  0  0  0  0  0  0  0
    2.3640   -0.0500    0.0000 C   0  0  0  0  0  0  0  0  0  0  0  0
    6.7070    0.7930    0.0000 C   0  0  0  0  0  0  0  0  0  0  0  0
    3.0790   -1.2870    0.0000 C   0  0  0  0  0  0  0  0  0  0  0  0
    1.6500   -0.4620    0.0000 C   0  0  0  0  0  0  0  0  0  0  0  0
    2.3640    0.7760    0.0000 C   0  0  0  0  0  0  0  0  0  0  0  0
    2.3640   -1.7000    0.0000 C   0  0  0  0  0  0  0  0  0  0  0  0
    1.6500   -1.2870    0.0000 C   0  0  0  0  0  0  0  0  0  0  0  0
  1 19  1  0  0  0  0
  2  4  2  0  0  0  0
  2  5  2  0  0  0  0
  2  8  1  0  0  0  0
  2 17  1  0  0  0  0
  3 12  2  0  0  0  0
  6  9  1  0  0  0  0
  6 12  1  0  0  0  0
  6 13  1  0  0  0  0
  7  9  1  0  0  0  0
  7 10  1  0  0  0  0
  9 14  1  0  0  0  0
 10 11  2  0  0  0  0
 10 16  1  0  0  0  0
 11 12  1  0  0  0  0
 11 15  1  0  0  0  0
 13 18  2  0  0  0  0
 13 20  1  0  0  0  0
 15 17  2  0  0  0  0
 16 19  2  0  0  0  0
 17 19  1  0  0  0  0
 18 21  1  0  0  0  0
 18 22  1  0  0  0  0
 20 23  2  0  0  0  0
 21 24  2  0  0  0  0
 23 24  1  0  0  0  0
M  END
>  <DATABASE_ID>
DB00524

>  <DATABASE_NAME>
drugbank

>  <SMILES>
Clc1cc2NC(N(c3ccccc3C)C(=O)c2cc1S(=O)(=O)N)C

>  <INCHI_IDENTIFIER>
InChI=1S/C16H16ClN3O3S/c1-9-5-3-4-6-14(9)20-10(2)19-13-8-12(17)15(24(18,22)23)7-11(13)16(20)21/h3-8,10,19H,1-2H3,(H2,18,22,23)

>  <INCHI_KEY>
InChIKey=AQCHWTWZEMGIFD-UHFFFAOYSA-N

>  <JCHEM_ACCEPTOR_COUNT>
4

>  <JCHEM_AVERAGE_POLARIZABILITY>
36.382172

>  <JCHEM_BIOAVAILABILITY>
1

>  <JCHEM_DONOR_COUNT>
2

>  <JCHEM_EXACT_MASS>
365.06009

>  <JCHEM_FORMAL_CHARGE>
0

>  <JCHEM_FORMULA>
C16H16ClN3O3S

>  <JCHEM_GHOSE_FILTER>
1

>  <JCHEM_IUPAC>
7-chloro-2-methyl-3-(2-methylphenyl)-4-oxo-1,2,3,4-tetrahydroquinazoline-6-sulfonamide

>  <ALOGPS_LOGP>
3.21

>  <JCHEM_LOGP>
2.9435806

>  <ALOGPS_LOGS>
-3.95

>  <JCHEM_MASS>
365.83499

>  <JCHEM_MDDR_LIKE_RULE>
0

>  <JCHEM_NUMBER_OF_RINGS>
3

>  <JCHEM_PHYSIOLOGICAL_CHARGE>
0

>  <JCHEM_PKA>
12.229213

>  <JCHEM_PKA_STRONGEST_ACIDIC>
9.535759

>  <JCHEM_PKA_STRONGEST_BASIC>
-1.640641

>  <JCHEM_POLAR_SURFACE_AREA>
92.5

>  <JCHEM_REFRACTIVITY>
94.587898

>  <JCHEM_ROTATABLE_BOND_COUNT>
2

>  <JCHEM_RULE_OF_FIVE>
1

>  <ALOGPS_SOLUBILITY>
4.07e-02 g/l

>  <JCHEM_TRADITIONAL_IUPAC>
metolazone

>  <JCHEM_VEBER_RULE>
0

>  <DRUGBANK_ID>
DB00524

>  <DRUG_GROUPS>
approved

>  <GENERIC_NAME>
Metolazone

>  <SYNONYMS>
Metolazon; Metolazona; Métolazone; Metolazonum

>  <BRANDS>
Diulo; Diurem; Metadure; Metenix; Metolaz; Metolazone; Metoral; Metoz; Metozone; Mykrox; Pavedal; Zaroxolyn; Zytanix

$$$$
Erlotinib
 OpenBabel02121510022D

 29 31  0  0  0  0  0  0  0  0999 V2000
    4.5080    0.2780    0.0000 O   0  0  0  0  0  0  0  0  0  0  0  0
    4.5080    1.9280    0.0000 O   0  0  0  0  0  0  0  0  0  0  0  0
    2.3640    0.6910    0.0000 O   0  0  0  0  0  0  0  0  0  0  0  0
    3.7940    3.9910    0.0000 O   0  0  0  0  0  0  0  0  0  0  0  0
    7.3800   -0.5750    0.0000 N   0  0  0  0  0  0  0  0  0  0  0  0
    7.3890    1.9570    0.0000 N   0  0  0  0  0  0  0  0  0  0  0  0
    8.1360    0.6740    0.0000 N   0  0  0  0  0  0  0  0  0  0  0  0
    6.6520    0.6910    0.0000 C   0  0  0  0  0  0  0  0  0  0  0  0
    6.6520    1.5160    0.0000 C   0  0  0  0  0  0  0  0  0  0  0  0
    5.2220    0.6910    0.0000 C   0  0  0  0  0  0  0  0  0  0  0  0
    5.2220    1.5160    0.0000 C   0  0  0  0  0  0  0  0  0  0  0  0
    5.9370    0.2780    0.0000 C   0  0  0  0  0  0  0  0  0  0  0  0
    7.3890    0.2500    0.0000 C   0  0  0  0  0  0  0  0  0  0  0  0
    5.9370    1.9280    0.0000 C   0  0  0  0  0  0  0  0  0  0  0  0
    3.7940    0.6910    0.0000 C   0  0  0  0  0  0  0  0  0  0  0  0
    8.0890   -0.9960    0.0000 C   0  0  0  0  0  0  0  0  0  0  0  0
    4.5080    2.7530    0.0000 C   0  0  0  0  0  0  0  0  0  0  0  0
    8.1360    1.5330    0.0000 C   0  0  0  0  0  0  0  0  0  0  0  0
    3.0790    0.2780    0.0000 C   0  0  0  0  0  0  0  0  0  0  0  0
    3.7940    3.1660    0.0000 C   0  0  0  0  0  0  0  0  0  0  0  0
    8.0800   -1.8210    0.0000 C   0  0  0  0  0  0  0  0  0  0  0  0
    8.8080   -0.5920    0.0000 C   0  0  0  0  0  0  0  0  0  0  0  0
    8.7890   -2.2420    0.0000 C   0  0  0  0  0  0  0  0  0  0  0  0
    9.5180   -1.0130    0.0000 C   0  0  0  0  0  0  0  0  0  0  0  0
    9.5080   -1.8380    0.0000 C   0  0  0  0  0  0  0  0  0  0  0  0
    1.6500    0.2780    0.0000 C   0  0  0  0  0  0  0  0  0  0  0  0
    3.0790    4.4030    0.0000 C   0  0  0  0  0  0  0  0  0  0  0  0
    8.7800   -3.0670    0.0000 C   0  0  0  0  0  0  0  0  0  0  0  0
    8.7700   -3.8920    0.0000 C   0  0  0  0  0  0  0  0  0  0  0  0
  1 10  1  0  0  0  0
  1 15  1  0  0  0  0
  2 11  1  0  0  0  0
  2 17  1  0  0  0  0
  3 19  1  0  0  0  0
  3 26  1  0  0  0  0
  4 20  1  0  0  0  0
  4 27  1  0  0  0  0
  5 13  1  0  0  0  0
  5 16  1  0  0  0  0
  6  9  1  0  0  0  0
  6 18  2  0  0  0  0
  7 13  2  0  0  0  0
  7 18  1  0  0  0  0
  8  9  1  0  0  0  0
  8 12  2  0  0  0  0
  8 13  1  0  0  0  0
  9 14  2  0  0  0  0
 10 11  2  0  0  0  0
 10 12  1  0  0  0  0
 11 14  1  0  0  0  0
 15 19  1  0  0  0  0
 16 21  2  0  0  0  0
 16 22  1  0  0  0  0
 17 20  1  0  0  0  0
 21 23  1  0  0  0  0
 22 24  2  0  0  0  0
 23 25  2  0  0  0  0
 23 28  1  0  0  0  0
 24 25  1  0  0  0  0
 28 29  3  0  0  0  0
M  END
>  <DATABASE_ID>
DB00530

>  <DATABASE_NAME>
drugbank

>  <SMILES>
O(CCOC)c1cc2c(ncnc2Nc2cc(ccc2)C#C)cc1OCCOC

>  <INCHI_IDENTIFIER>
InChI=1S/C22H23N3O4/c1-4-16-6-5-7-17(12-16)25-22-18-13-20(28-10-8-26-2)21(29-11-9-27-3)14-19(18)23-15-24-22/h1,5-7,12-15H,8-11H2,2-3H3,(H,23,24,25)

>  <INCHI_KEY>
InChIKey=AAKJLRGGTJKAMG-UHFFFAOYSA-N

>  <JCHEM_ACCEPTOR_COUNT>
7

>  <JCHEM_AVERAGE_POLARIZABILITY>
43.481983

>  <JCHEM_BIOAVAILABILITY>
1

>  <JCHEM_DONOR_COUNT>
1

>  <JCHEM_EXACT_MASS>
393.16885

>  <JCHEM_FORMAL_CHARGE>
0

>  <JCHEM_FORMULA>
C22H23N3O4

>  <JCHEM_GHOSE_FILTER>
1

>  <JCHEM_IUPAC>
N-(3-ethynylphenyl)-6,7-bis(2-methoxyethoxy)quinazolin-4-amine

>  <ALOGPS_LOGP>
3.1300001

>  <JCHEM_LOGP>
3.2009876

>  <ALOGPS_LOGS>
-4.6399999

>  <JCHEM_MASS>
393.4357

>  <JCHEM_MDDR_LIKE_RULE>
1

>  <JCHEM_NUMBER_OF_RINGS>
3

>  <JCHEM_PHYSIOLOGICAL_CHARGE>
0

>  <JCHEM_PKA_STRONGEST_ACIDIC>
16.143808

>  <JCHEM_PKA_STRONGEST_BASIC>
4.5874863

>  <JCHEM_POLAR_SURFACE_AREA>
74.730003

>  <JCHEM_REFRACTIVITY>
107.7859

>  <JCHEM_ROTATABLE_BOND_COUNT>
10

>  <JCHEM_RULE_OF_FIVE>
1

>  <ALOGPS_SOLUBILITY>
8.91e-03 g/l

>  <JCHEM_TRADITIONAL_IUPAC>
erlotinib

>  <JCHEM_VEBER_RULE>
0

>  <DRUGBANK_ID>
DB00530

>  <DRUG_GROUPS>
approved; investigational

>  <GENERIC_NAME>
Erlotinib

>  <SYNONYMS>
OSI-774

>  <BRANDS>
Tarceva

>  <SALTS>
Erlotinib Hydrochloride

$$$$
Cyclophosphamide
 OpenBabel02121510022D

 14 14  0  0  1  0  0  0  0  0999 V2000
    1.6500   -0.8250    0.0000 Cl  0  0  0  0  0  0  0  0  0  0  0  0
    4.1250   -2.2540    0.0000 Cl  0  0  0  0  0  0  0  0  0  0  0  0
    4.1250    0.6040    0.0000 P   0  0  3  0  0  0  0  0  0  0  0  0
    4.8400    1.0160    0.0000 O   0  0  0  0  0  0  0  0  0  0  0  0
    4.5380   -0.1110    0.0000 O   0  0  0  0  0  0  0  0  0  0  0  0
    3.7130   -0.1110    0.0000 N   0  0  0  0  0  0  0  0  0  0  0  0
    3.4110    1.0160    0.0000 N   0  0  0  0  0  0  0  0  0  0  0  0
    3.4110    1.8420    0.0000 C   0  0  0  0  0  0  0  0  0  0  0  0
    4.1250    2.2540    0.0000 C   0  0  0  0  0  0  0  0  0  0  0  0
    4.8400    1.8420    0.0000 C   0  0  0  0  0  0  0  0  0  0  0  0
    2.8880   -0.1110    0.0000 C   0  0  0  0  0  0  0  0  0  0  0  0
    4.1250   -0.8250    0.0000 C   0  0  0  0  0  0  0  0  0  0  0  0
    2.4750   -0.8250    0.0000 C   0  0  0  0  0  0  0  0  0  0  0  0
    3.7130   -1.5400    0.0000 C   0  0  0  0  0  0  0  0  0  0  0  0
  1 13  1  0  0  0  0
  2 14  1  0  0  0  0
  3  4  1  0  0  0  0
  3  5  2  0  0  0  0
  3  6  1  0  0  0  0
  3  7  1  0  0  0  0
  4 10  1  0  0  0  0
  6 11  1  0  0  0  0
  6 12  1  0  0  0  0
  7  8  1  0  0  0  0
  8  9  1  0  0  0  0
  9 10  1  0  0  0  0
 11 13  1  0  0  0  0
 12 14  1  0  0  0  0
M  END
>  <DATABASE_ID>
DB00531

>  <DATABASE_NAME>
drugbank

>  <SMILES>
ClCCN(P1(OCCCN1)=O)CCCl

>  <INCHI_IDENTIFIER>
InChI=1S/C7H15Cl2N2O2P/c8-2-5-11(6-3-9)14(12)10-4-1-7-13-14/h1-7H2,(H,10,12)

>  <INCHI_KEY>
InChIKey=CMSMOCZEIVJLDB-UHFFFAOYSA-N

>  <JCHEM_ACCEPTOR_COUNT>
2

>  <JCHEM_AVERAGE_POLARIZABILITY>
23.722395

>  <JCHEM_BIOAVAILABILITY>
1

>  <JCHEM_DONOR_COUNT>
1

>  <JCHEM_EXACT_MASS>
260.02481

>  <JCHEM_FORMAL_CHARGE>
0

>  <JCHEM_FORMULA>
C7H15Cl2N2O2P

>  <JCHEM_GHOSE_FILTER>
1

>  <JCHEM_IUPAC>
2-[bis(2-chloroethyl)amino]-1,3,2$l^{5}-oxazaphosphinan-2-one

>  <ALOGPS_LOGP>
0.75999999

>  <JCHEM_LOGP>
0.096547686

>  <ALOGPS_LOGS>
-1.24

>  <JCHEM_MASS>
261.086

>  <JCHEM_MDDR_LIKE_RULE>
0

>  <JCHEM_NUMBER_OF_RINGS>
1

>  <JCHEM_PHYSIOLOGICAL_CHARGE>
0

>  <JCHEM_PKA_STRONGEST_ACIDIC>
12.776543

>  <JCHEM_PKA_STRONGEST_BASIC>
-0.56590855

>  <JCHEM_POLAR_SURFACE_AREA>
41.57

>  <JCHEM_REFRACTIVITY>
58.4781

>  <JCHEM_ROTATABLE_BOND_COUNT>
5

>  <JCHEM_RULE_OF_FIVE>
1

>  <ALOGPS_SOLUBILITY>
1.51e+01 g/l

>  <JCHEM_TRADITIONAL_IUPAC>
cyclophosphamide

>  <JCHEM_VEBER_RULE>
0

>  <DRUGBANK_ID>
DB00531

>  <DRUG_GROUPS>
approved; investigational

>  <GENERIC_NAME>
Cyclophosphamide

>  <SYNONYMS>
(+-)-Cyclophosphamide; (RS)-Cyclophosphamide; Ciclofosfamida; Ciclofosfamide; Cyclophosphamid; Cyclophosphamide; Cyclophosphamide anhydrous; Cyclophosphamidum; Cytophosphane; Ledoxina

>  <BRANDS>
Cytoxan; Endoxan; Neosar; Procytox; Revimmune; Sendoxan

$$$$
Cefdinir
 OpenBabel02121510022D

 27 29  0  0  1  0  0  0  0  0999 V2000
    3.7940   -0.6740    0.0000 S   0  0  0  0  0  0  0  0  0  0  0  0
    9.4320   -1.0830    0.0000 S   0  0  0  0  0  0  0  0  0  0  0  0
    5.9220    1.1510    0.0000 O   0  0  0  0  0  0  0  0  0  0  0  0
    3.0790    2.2130    0.0000 O   0  0  0  0  0  0  0  0  0  0  0  0
    4.5080    2.2130    0.0000 O   0  0  0  0  0  0  0  0  0  0  0  0
    6.9340    0.1580    0.0000 O   0  0  0  0  0  0  0  0  0  0  0  0
    6.2890   -2.2310    0.0000 O   0  0  0  0  0  0  0  0  0  0  0  0
    4.5080    0.5630    0.0000 N   0  0  0  0  0  0  0  0  0  0  0  0
    5.9220   -0.8500    0.0000 N   0  0  0  0  0  0  0  0  0  0  0  0
    7.0860   -2.0190    0.0000 N   0  0  0  0  0  0  0  0  0  0  0  0
    8.3960   -0.2410    0.0000 N   0  0  0  0  0  0  0  0  0  0  0  0
    9.7400    0.3540    0.0000 N   0  0  0  0  0  0  0  0  0  0  0  0
    4.5080   -0.2620    0.0000 C   0  0  1  0  0  0  0  0  0  0  0  0
    5.3400   -0.2650    0.0000 C   0  0  1  0  0  0  0  0  0  0  0  0
    5.3400    0.5660    0.0000 C   0  0  0  0  0  0  0  0  0  0  0  0
    3.7940    0.9760    0.0000 C   0  0  0  0  0  0  0  0  0  0  0  0
    3.0790   -0.2620    0.0000 C   0  0  0  0  0  0  0  0  0  0  0  0
    3.0790    0.5630    0.0000 C   0  0  0  0  0  0  0  0  0  0  0  0
    3.7940    1.8010    0.0000 C   0  0  0  0  0  0  0  0  0  0  0  0
    6.7190   -0.6380    0.0000 C   0  0  0  0  0  0  0  0  0  0  0  0
    2.3640    0.9760    0.0000 C   0  0  0  0  0  0  0  0  0  0  0  0
    7.3020   -1.2220    0.0000 C   0  0  0  0  0  0  0  0  0  0  0  0
    1.6500    0.5630    0.0000 C   0  0  0  0  0  0  0  0  0  0  0  0
    8.0990   -1.0110    0.0000 C   0  0  0  0  0  0  0  0  0  0  0  0
    8.7390   -1.5310    0.0000 C   0  0  0  0  0  0  0  0  0  0  0  0
    9.2200   -0.2860    0.0000 C   0  0  0  0  0  0  0  0  0  0  0  0
    4.6780   -0.9000    0.0000 H   0  0  0  0  0  0  0  0  0  0  0  0
  1 13  1  0  0  0  0
  1 17  1  0  0  0  0
  2 25  1  0  0  0  0
  2 26  1  0  0  0  0
  3 15  2  0  0  0  0
  4 19  1  0  0  0  0
  5 19  2  0  0  0  0
  6 20  2  0  0  0  0
  7 10  1  0  0  0  0
  8 13  1  0  0  0  0
  8 15  1  0  0  0  0
  8 16  1  0  0  0  0
  9 20  1  0  0  0  0
 10 22  2  0  0  0  0
 11 24  1  0  0  0  0
 11 26  2  0  0  0  0
 12 26  1  0  0  0  0
 13 14  1  0  0  0  0
 13 27  1  6  0  0  0
 14  9  1  1  0  0  0
 14 15  1  0  0  0  0
 16 18  2  0  0  0  0
 16 19  1  0  0  0  0
 17 18  1  0  0  0  0
 18 21  1  0  0  0  0
 20 22  1  0  0  0  0
 21 23  2  0  0  0  0
 22 24  1  0  0  0  0
 24 25  2  0  0  0  0
M  END
>  <DATABASE_ID>
DB00535

>  <DATABASE_NAME>
drugbank

>  <SMILES>
s1cc(nc1N)/C(=N/O)/C(=O)N[C@H]1[C@H]2SCC(C=C)=C(N2C1=O)C(O)=O

>  <INCHI_IDENTIFIER>
InChI=1S/C14H13N5O5S2/c1-2-5-3-25-12-8(11(21)19(12)9(5)13(22)23)17-10(20)7(18-24)6-4-26-14(15)16-6/h2,4,8,12,24H,1,3H2,(H2,15,16)(H,17,20)(H,22,23)/b18-7-/t8-,12-/m1/s1

>  <INCHI_KEY>
InChIKey=RTXOFQZKPXMALH-GHXIOONMSA-N

>  <JCHEM_ACCEPTOR_COUNT>
8

>  <JCHEM_AVERAGE_POLARIZABILITY>
36.120499

>  <JCHEM_BIOAVAILABILITY>
1

>  <JCHEM_DONOR_COUNT>
4

>  <JCHEM_EXACT_MASS>
395.0358

>  <JCHEM_FORMAL_CHARGE>
0

>  <JCHEM_FORMULA>
C14H13N5O5S2

>  <JCHEM_GHOSE_FILTER>
0

>  <JCHEM_IUPAC>
(6R,7R)-7-[(2Z)-2-(2-amino-1,3-thiazol-4-yl)-2-(N-hydroxyimino)acetamido]-3-ethenyl-8-oxo-5-thia-1-azabicyclo[4.2.0]oct-2-ene-2-carboxylic acid

>  <ALOGPS_LOGP>
0.02

>  <JCHEM_LOGP>
-1.6689881

>  <ALOGPS_LOGS>
-3.6500001

>  <JCHEM_MASS>
395.414

>  <JCHEM_MDDR_LIKE_RULE>
0

>  <JCHEM_NUMBER_OF_RINGS>
3

>  <JCHEM_PHYSIOLOGICAL_CHARGE>
-1

>  <JCHEM_PKA>
3.1996567

>  <JCHEM_PKA_STRONGEST_ACIDIC>
1.7439805

>  <JCHEM_PKA_STRONGEST_BASIC>
7.4475093

>  <JCHEM_POLAR_SURFACE_AREA>
158.21001

>  <JCHEM_REFRACTIVITY>
94.344902

>  <JCHEM_ROTATABLE_BOND_COUNT>
5

>  <JCHEM_RULE_OF_FIVE>
1

>  <ALOGPS_SOLUBILITY>
8.78e-02 g/l

>  <JCHEM_TRADITIONAL_IUPAC>
cefdinir

>  <JCHEM_VEBER_RULE>
0

>  <DRUGBANK_ID>
DB00535

>  <DRUG_GROUPS>
approved

>  <GENERIC_NAME>
Cefdinir

>  <SYNONYMS>
Cefdinir; Cefdinirum; CFDN

>  <BRANDS>
Cednir; Cefdiel; Cefzon; Duocef; Efdinir; Idinir; Kefnir; Nirocef; Oceph; Omicef; Omnicef; Omnicef R; Palacef; Palcef; Rtist; Samnir; Xi Fu Ni; Zefdinir; Zinir

$$$$
Ciprofloxacin
 OpenBabel02121510022D

 24 27  0  0  1  0  0  0  0  0999 V2000
    7.1490    1.2020    0.0000 F   0  0  0  0  0  0  0  0  0  0  0  0
    4.2360    2.0070    0.0000 O   0  0  0  0  0  0  0  0  0  0  0  0
    2.0930    0.7700    0.0000 O   0  0  0  0  0  0  0  0  0  0  0  0
    2.8080    2.0070    0.0000 O   0  0  0  0  0  0  0  0  0  0  0  0
    4.2360   -0.4680    0.0000 N   0  0  0  0  0  0  0  0  0  0  0  0
    7.1490   -0.4880    0.0000 N   0  0  0  0  0  0  0  0  0  0  0  0
    8.5750   -1.3180    0.0000 N   0  0  0  0  0  0  0  0  0  0  0  0
    4.2360   -1.2930    0.0000 C   0  0  0  0  0  0  0  0  0  0  0  0
    3.8240   -2.0070    0.0000 C   0  0  0  0  0  0  0  0  0  0  0  0
    4.6490   -2.0070    0.0000 C   0  0  0  0  0  0  0  0  0  0  0  0
    4.9510   -0.0550    0.0000 C   0  0  0  0  0  0  0  0  0  0  0  0
    3.5220   -0.0550    0.0000 C   0  0  0  0  0  0  0  0  0  0  0  0
    4.9510    0.7700    0.0000 C   0  0  0  0  0  0  0  0  0  0  0  0
    5.6880   -0.4960    0.0000 C   0  0  0  0  0  0  0  0  0  0  0  0
    6.4360   -0.0720    0.0000 C   0  0  0  0  0  0  0  0  0  0  0  0
    7.8650   -0.0780    0.0000 C   0  0  0  0  0  0  0  0  0  0  0  0
    7.1460   -1.3130    0.0000 C   0  0  0  0  0  0  0  0  0  0  0  0
    3.5220    0.7700    0.0000 C   0  0  0  0  0  0  0  0  0  0  0  0
    4.2360    1.1820    0.0000 C   0  0  0  0  0  0  0  0  0  0  0  0
    8.5780   -0.4930    0.0000 C   0  0  0  0  0  0  0  0  0  0  0  0
    7.8580   -1.7280    0.0000 C   0  0  0  0  0  0  0  0  0  0  0  0
    5.6880    1.2110    0.0000 C   0  0  0  0  0  0  0  0  0  0  0  0
    6.4360    0.7870    0.0000 C   0  0  0  0  0  0  0  0  0  0  0  0
    2.8080    1.1820    0.0000 C   0  0  0  0  0  0  0  0  0  0  0  0
  1 23  1  0  0  0  0
  2 19  2  0  0  0  0
  3 24  1  0  0  0  0
  4 24  2  0  0  0  0
  5  8  1  0  0  0  0
  5 11  1  0  0  0  0
  5 12  1  0  0  0  0
  6 15  1  0  0  0  0
  6 16  1  0  0  0  0
  6 17  1  0  0  0  0
  7 20  1  0  0  0  0
  7 21  1  0  0  0  0
  8  9  1  0  0  0  0
  8 10  1  0  0  0  0
  9 10  1  0  0  0  0
 11 13  1  0  0  0  0
 11 14  2  0  0  0  0
 12 18  2  0  0  0  0
 13 19  1  0  0  0  0
 13 22  2  0  0  0  0
 14 15  1  0  0  0  0
 15 23  2  0  0  0  0
 16 20  1  0  0  0  0
 17 21  1  0  0  0  0
 18 19  1  0  0  0  0
 18 24  1  0  0  0  0
 22 23  1  0  0  0  0
M  END
>  <DATABASE_ID>
DB00537

>  <DATABASE_NAME>
drugbank

>  <SMILES>
Fc1cc2c(N(C=C(C(O)=O)C2=O)C2CC2)cc1N1CCNCC1

>  <INCHI_IDENTIFIER>
InChI=1S/C17H18FN3O3/c18-13-7-11-14(8-15(13)20-5-3-19-4-6-20)21(10-1-2-10)9-12(16(11)22)17(23)24/h7-10,19H,1-6H2,(H,23,24)

>  <INCHI_KEY>
InChIKey=MYSWGUAQZAJSOK-UHFFFAOYSA-N

>  <JCHEM_ACCEPTOR_COUNT>
6

>  <JCHEM_AVERAGE_POLARIZABILITY>
33.118176

>  <JCHEM_BIOAVAILABILITY>
1

>  <JCHEM_DONOR_COUNT>
2

>  <JCHEM_EXACT_MASS>
331.13321

>  <JCHEM_FORMAL_CHARGE>
0

>  <JCHEM_FORMULA>
C17H18FN3O3

>  <JCHEM_GHOSE_FILTER>
0

>  <JCHEM_IUPAC>
1-cyclopropyl-6-fluoro-4-oxo-7-(piperazin-1-yl)-1,4-dihydroquinoline-3-carboxylic acid

>  <ALOGPS_LOGP>
-0.56999999

>  <JCHEM_LOGP>
-0.81459606

>  <ALOGPS_LOGS>
-2.3900001

>  <JCHEM_MASS>
331.34149

>  <JCHEM_MDDR_LIKE_RULE>
0

>  <JCHEM_NUMBER_OF_RINGS>
4

>  <JCHEM_PHYSIOLOGICAL_CHARGE>
0

>  <JCHEM_PKA_STRONGEST_ACIDIC>
5.7555547

>  <JCHEM_PKA_STRONGEST_BASIC>
8.6780386

>  <JCHEM_POLAR_SURFACE_AREA>
72.879997

>  <JCHEM_REFRACTIVITY>
87.9394

>  <JCHEM_ROTATABLE_BOND_COUNT>
3

>  <JCHEM_RULE_OF_FIVE>
1

>  <ALOGPS_SOLUBILITY>
1.35e+00 g/l

>  <JCHEM_TRADITIONAL_IUPAC>
ciprofloxacin

>  <JCHEM_VEBER_RULE>
0

>  <DRUGBANK_ID>
DB00537

>  <DRUG_GROUPS>
approved; investigational

>  <GENERIC_NAME>
Ciprofloxacin

>  <BRANDS>
Bacquinor; Baycip; Ciflox; Cifloxin; Ciloxan; Ciprinol; Cipro; Ciprobay; Ciprocinol; Ciprodar; Ciproxan; Ciproxin; Flociprin; Proquin; Proquin XR

>  <SALTS>
Ciprofloxacin Hydrochloride

$$$$
Toremifene
 OpenBabel02121510022D

 29 31  0  0  0  0  0  0  0  0999 V2000
    3.0790    4.1250    0.0000 Cl  0  0  0  0  0  0  0  0  0  0  0  0
    4.5080   -1.6500    0.0000 O   0  0  0  0  0  0  0  0  0  0  0  0
    3.0790   -3.3000    0.0000 N   0  0  0  0  0  0  0  0  0  0  0  0
    4.5080    1.6500    0.0000 C   0  0  0  0  0  0  0  0  0  0  0  0
    3.7940    2.0620    0.0000 C   0  0  0  0  0  0  0  0  0  0  0  0
    4.5080    0.8250    0.0000 C   0  0  0  0  0  0  0  0  0  0  0  0
    3.7940    2.8880    0.0000 C   0  0  0  0  0  0  0  0  0  0  0  0
    5.2220    2.0620    0.0000 C   0  0  0  0  0  0  0  0  0  0  0  0
    3.0790    1.6500    0.0000 C   0  0  0  0  0  0  0  0  0  0  0  0
    5.2220    0.4120    0.0000 C   0  0  0  0  0  0  0  0  0  0  0  0
    3.7940    0.4120    0.0000 C   0  0  0  0  0  0  0  0  0  0  0  0
    3.0790    3.3000    0.0000 C   0  0  0  0  0  0  0  0  0  0  0  0
    4.5080   -0.8250    0.0000 C   0  0  0  0  0  0  0  0  0  0  0  0
    5.2220   -0.4120    0.0000 C   0  0  0  0  0  0  0  0  0  0  0  0
    3.7940   -0.4120    0.0000 C   0  0  0  0  0  0  0  0  0  0  0  0
    5.2220    2.8880    0.0000 C   0  0  0  0  0  0  0  0  0  0  0  0
    5.9370    1.6500    0.0000 C   0  0  0  0  0  0  0  0  0  0  0  0
    3.0790    0.8250    0.0000 C   0  0  0  0  0  0  0  0  0  0  0  0
    2.3640    2.0620    0.0000 C   0  0  0  0  0  0  0  0  0  0  0  0
    3.7940   -2.8880    0.0000 C   0  0  0  0  0  0  0  0  0  0  0  0
    3.7940   -2.0620    0.0000 C   0  0  0  0  0  0  0  0  0  0  0  0
    5.9370    3.3000    0.0000 C   0  0  0  0  0  0  0  0  0  0  0  0
    6.6520    2.0620    0.0000 C   0  0  0  0  0  0  0  0  0  0  0  0
    2.3640    0.4120    0.0000 C   0  0  0  0  0  0  0  0  0  0  0  0
    1.6500    1.6500    0.0000 C   0  0  0  0  0  0  0  0  0  0  0  0
    6.6520    2.8880    0.0000 C   0  0  0  0  0  0  0  0  0  0  0  0
    1.6500    0.8250    0.0000 C   0  0  0  0  0  0  0  0  0  0  0  0
    2.3640   -2.8880    0.0000 C   0  0  0  0  0  0  0  0  0  0  0  0
    3.0790   -4.1250    0.0000 C   0  0  0  0  0  0  0  0  0  0  0  0
  1 12  1  0  0  0  0
  2 13  1  0  0  0  0
  2 21  1  0  0  0  0
  3 20  1  0  0  0  0
  3 28  1  0  0  0  0
  3 29  1  0  0  0  0
  4  5  2  0  0  0  0
  4  6  1  0  0  0  0
  4  8  1  0  0  0  0
  5  7  1  0  0  0  0
  5  9  1  0  0  0  0
  6 10  2  0  0  0  0
  6 11  1  0  0  0  0
  7 12  1  0  0  0  0
  8 16  2  0  0  0  0
  8 17  1  0  0  0  0
  9 18  2  0  0  0  0
  9 19  1  0  0  0  0
 10 14  1  0  0  0  0
 11 15  2  0  0  0  0
 13 14  2  0  0  0  0
 13 15  1  0  0  0  0
 16 22  1  0  0  0  0
 17 23  2  0  0  0  0
 18 24  1  0  0  0  0
 19 25  2  0  0  0  0
 20 21  1  0  0  0  0
 22 26  2  0  0  0  0
 23 26  1  0  0  0  0
 24 27  2  0  0  0  0
 25 27  1  0  0  0  0
M  END
>  <DATABASE_ID>
DB00539

>  <DATABASE_NAME>
drugbank

>  <SMILES>
ClCC\C(=C(\c1ccc(OCCN(C)C)cc1)/c1ccccc1)\c1ccccc1

>  <INCHI_IDENTIFIER>
InChI=1S/C26H28ClNO/c1-28(2)19-20-29-24-15-13-23(14-16-24)26(22-11-7-4-8-12-22)25(17-18-27)21-9-5-3-6-10-21/h3-16H,17-20H2,1-2H3/b26-25-

>  <INCHI_KEY>
InChIKey=XFCLJVABOIYOMF-QPLCGJKRSA-N

>  <JCHEM_ACCEPTOR_COUNT>
2

>  <JCHEM_AVERAGE_POLARIZABILITY>
46.489635

>  <JCHEM_BIOAVAILABILITY>
1

>  <JCHEM_DONOR_COUNT>
0

>  <JCHEM_EXACT_MASS>
405.18594

>  <JCHEM_FORMAL_CHARGE>
0

>  <JCHEM_FORMULA>
C26H28ClNO

>  <JCHEM_GHOSE_FILTER>
0

>  <JCHEM_IUPAC>
(2-{4-[(1Z)-4-chloro-1,2-diphenylbut-1-en-1-yl]phenoxy}ethyl)dimethylamine

>  <ALOGPS_LOGP>
5.6500001

>  <JCHEM_LOGP>
6.269135

>  <ALOGPS_LOGS>
-6

>  <JCHEM_MASS>
405.95999

>  <JCHEM_MDDR_LIKE_RULE>
1

>  <JCHEM_NUMBER_OF_RINGS>
3

>  <JCHEM_PHYSIOLOGICAL_CHARGE>
1

>  <JCHEM_PKA_STRONGEST_BASIC>
8.7643042

>  <JCHEM_POLAR_SURFACE_AREA>
12.47

>  <JCHEM_REFRACTIVITY>
133.41051

>  <JCHEM_ROTATABLE_BOND_COUNT>
9

>  <JCHEM_RULE_OF_FIVE>
0

>  <ALOGPS_SOLUBILITY>
4.09e-04 g/l

>  <JCHEM_TRADITIONAL_IUPAC>
toremifene

>  <JCHEM_VEBER_RULE>
1

>  <DRUGBANK_ID>
DB00539

>  <DRUG_GROUPS>
approved; investigational

>  <GENERIC_NAME>
Toremifene

>  <SYNONYMS>
Toremifeno; Toremifenum

>  <BRANDS>
Acapodene; Fareston

$$$$
Nortriptyline
 OpenBabel02121510022D

 20 22  0  0  0  0  0  0  0  0999 V2000
    2.5990   -1.7280    0.0000 N   0  0  0  0  0  0  0  0  0  0  0  0
    4.4400    2.5530    0.0000 C   0  0  0  0  0  0  0  0  0  0  0  0
    3.6150    2.5530    0.0000 C   0  0  0  0  0  0  0  0  0  0  0  0
    4.9550    1.9080    0.0000 C   0  0  0  0  0  0  0  0  0  0  0  0
    3.1010    1.9080    0.0000 C   0  0  0  0  0  0  0  0  0  0  0  0
    4.0280    0.7460    0.0000 C   0  0  0  0  0  0  0  0  0  0  0  0
    4.7710    1.1040    0.0000 C   0  0  0  0  0  0  0  0  0  0  0  0
    3.2840    1.1040    0.0000 C   0  0  0  0  0  0  0  0  0  0  0  0
    4.0280   -0.0790    0.0000 C   0  0  0  0  0  0  0  0  0  0  0  0
    5.7720    2.1740    0.0000 C   0  0  0  0  0  0  0  0  0  0  0  0
    2.2840    2.1740    0.0000 C   0  0  0  0  0  0  0  0  0  0  0  0
    5.3920    0.5100    0.0000 C   0  0  0  0  0  0  0  0  0  0  0  0
    2.6640    0.5100    0.0000 C   0  0  0  0  0  0  0  0  0  0  0  0
    3.3130   -0.4910    0.0000 C   0  0  0  0  0  0  0  0  0  0  0  0
    6.4060    1.5950    0.0000 C   0  0  0  0  0  0  0  0  0  0  0  0
    1.6500    1.5950    0.0000 C   0  0  0  0  0  0  0  0  0  0  0  0
    3.3130   -1.3160    0.0000 C   0  0  0  0  0  0  0  0  0  0  0  0
    6.2150    0.7570    0.0000 C   0  0  0  0  0  0  0  0  0  0  0  0
    1.8410    0.7570    0.0000 C   0  0  0  0  0  0  0  0  0  0  0  0
    2.5990   -2.5530    0.0000 C   0  0  0  0  0  0  0  0  0  0  0  0
  1 17  1  0  0  0  0
  1 20  1  0  0  0  0
  2  3  1  0  0  0  0
  2  4  1  0  0  0  0
  3  5  1  0  0  0  0
  4  7  1  0  0  0  0
  4 10  2  0  0  0  0
  5  8  1  0  0  0  0
  5 11  2  0  0  0  0
  6  7  1  0  0  0  0
  6  8  1  0  0  0  0
  6  9  2  0  0  0  0
  7 12  2  0  0  0  0
  8 13  2  0  0  0  0
  9 14  1  0  0  0  0
 10 15  1  0  0  0  0
 11 16  1  0  0  0  0
 12 18  1  0  0  0  0
 13 19  1  0  0  0  0
 14 17  1  0  0  0  0
 15 18  2  0  0  0  0
 16 19  2  0  0  0  0
M  END
>  <DATABASE_ID>
DB00540

>  <DATABASE_NAME>
drugbank

>  <SMILES>
N(CCC=C1c2c(CCc3c1cccc3)cccc2)C

>  <INCHI_IDENTIFIER>
InChI=1S/C19H21N/c1-20-14-6-11-19-17-9-4-2-7-15(17)12-13-16-8-3-5-10-18(16)19/h2-5,7-11,20H,6,12-14H2,1H3

>  <INCHI_KEY>
InChIKey=PHVGLTMQBUFIQQ-UHFFFAOYSA-N

>  <JCHEM_ACCEPTOR_COUNT>
1

>  <JCHEM_AVERAGE_POLARIZABILITY>
31.87459

>  <JCHEM_BIOAVAILABILITY>
1

>  <JCHEM_DONOR_COUNT>
1

>  <JCHEM_EXACT_MASS>
263.16739

>  <JCHEM_FORMAL_CHARGE>
0

>  <JCHEM_FORMULA>
C19H21N

>  <JCHEM_GHOSE_FILTER>
1

>  <JCHEM_IUPAC>
methyl({3-[(2E)-tricyclo[9.4.0.0^{3,8}]pentadeca-1(11),3(8),4,6,12,14-hexaen-2-ylidene]propyl})amine

>  <ALOGPS_LOGP>
4.6500001

>  <JCHEM_LOGP>
4.426487

>  <ALOGPS_LOGS>
-5.48

>  <JCHEM_MASS>
263.37671

>  <JCHEM_MDDR_LIKE_RULE>
0

>  <JCHEM_NUMBER_OF_RINGS>
3

>  <JCHEM_PHYSIOLOGICAL_CHARGE>
1

>  <JCHEM_PKA_STRONGEST_BASIC>
10.471609

>  <JCHEM_POLAR_SURFACE_AREA>
12.03

>  <JCHEM_REFRACTIVITY>
96.212502

>  <JCHEM_ROTATABLE_BOND_COUNT>
3

>  <JCHEM_RULE_OF_FIVE>
1

>  <ALOGPS_SOLUBILITY>
8.74e-04 g/l

>  <JCHEM_TRADITIONAL_IUPAC>
nortriptyline

>  <JCHEM_VEBER_RULE>
1

>  <DRUGBANK_ID>
DB00540

>  <DRUG_GROUPS>
approved

>  <GENERIC_NAME>
Nortriptyline

>  <SYNONYMS>
Demethylamitriptyline; Desmethylamitriptyline

>  <BRANDS>
Allegron; Aventyl; Noritren; Norpress; Nortrilen; Pamelor; Sensoval

>  <SALTS>
Nortriptyline Hydrochloride

$$$$
Benazepril
 OpenBabel02121510022D

 31 33  0  0  1  0  0  0  0  0999 V2000
    6.8310   -1.0220    0.0000 O   0  0  0  0  0  0  0  0  0  0  0  0
    5.2990    2.2890    0.0000 O   0  0  0  0  0  0  0  0  0  0  0  0
    6.5860    1.6690    0.0000 O   0  0  0  0  0  0  0  0  0  0  0  0
    7.9010   -2.7380    0.0000 O   0  0  0  0  0  0  0  0  0  0  0  0
    7.3790   -1.4080    0.0000 O   0  0  0  0  0  0  0  0  0  0  0  0
    5.8700    0.1820    0.0000 N   0  0  0  0  0  0  0  0  0  0  0  0
    5.8430   -2.0100    0.0000 N   0  0  0  0  0  0  0  0  0  0  0  0
    5.5120   -0.5610    0.0000 C   0  0  1  0  0  0  0  0  0  0  0  0
    4.6870   -0.5610    0.0000 C   0  0  0  0  0  0  0  0  0  0  0  0
    4.1730   -1.2060    0.0000 C   0  0  0  0  0  0  0  0  0  0  0  0
    5.4060    0.8640    0.0000 C   0  0  1  0  0  0  0  0  0  0  0  0
    6.0270   -1.2060    0.0000 C   0  0  0  0  0  0  0  0  0  0  0  0
    4.3560   -2.0100    0.0000 C   0  0  0  0  0  0  0  0  0  0  0  0
    5.1000   -2.3680    0.0000 C   0  0  0  0  0  0  0  0  0  0  0  0
    4.5830    0.8020    0.0000 C   0  0  0  0  0  0  0  0  0  0  0  0
    4.1180    1.4840    0.0000 C   0  0  0  0  0  0  0  0  0  0  0  0
    6.4880   -2.5250    0.0000 C   0  0  0  0  0  0  0  0  0  0  0  0
    5.7640    1.6070    0.0000 C   0  0  0  0  0  0  0  0  0  0  0  0
    3.6390   -2.4840    0.0000 C   0  0  0  0  0  0  0  0  0  0  0  0
    5.1770   -3.2240    0.0000 C   0  0  0  0  0  0  0  0  0  0  0  0
    3.2950    1.4220    0.0000 C   0  0  0  0  0  0  0  0  0  0  0  0
    3.6970   -3.3410    0.0000 C   0  0  0  0  0  0  0  0  0  0  0  0
    4.4710   -3.7140    0.0000 C   0  0  0  0  0  0  0  0  0  0  0  0
    7.2560   -2.2230    0.0000 C   0  0  0  0  0  0  0  0  0  0  0  0
    2.9370    0.6790    0.0000 C   0  0  0  0  0  0  0  0  0  0  0  0
    2.8310    2.1040    0.0000 C   0  0  0  0  0  0  0  0  0  0  0  0
    5.6570    3.0320    0.0000 C   0  0  0  0  0  0  0  0  0  0  0  0
    2.1150    0.6170    0.0000 C   0  0  0  0  0  0  0  0  0  0  0  0
    2.0080    2.0420    0.0000 C   0  0  0  0  0  0  0  0  0  0  0  0
    1.6500    1.2990    0.0000 C   0  0  0  0  0  0  0  0  0  0  0  0
    5.1920    3.7140    0.0000 C   0  0  0  0  0  0  0  0  0  0  0  0
  1 12  2  0  0  0  0
  2 18  1  0  0  0  0
  2 27  1  0  0  0  0
  3 18  2  0  0  0  0
  4 24  1  0  0  0  0
  5 24  2  0  0  0  0
  7 12  1  0  0  0  0
  7 14  1  0  0  0  0
  7 17  1  0  0  0  0
  8  6  1  6  0  0  0
  8  9  1  0  0  0  0
  8 12  1  0  0  0  0
  9 10  1  0  0  0  0
 10 13  1  0  0  0  0
 11  6  1  1  0  0  0
 11 15  1  0  0  0  0
 11 18  1  0  0  0  0
 13 14  1  0  0  0  0
 13 19  2  0  0  0  0
 14 20  2  0  0  0  0
 15 16  1  0  0  0  0
 16 21  1  0  0  0  0
 17 24  1  0  0  0  0
 19 22  1  0  0  0  0
 20 23  1  0  0  0  0
 21 25  2  0  0  0  0
 21 26  1  0  0  0  0
 22 23  2  0  0  0  0
 25 28  1  0  0  0  0
 26 29  2  0  0  0  0
 27 31  1  0  0  0  0
 28 30  2  0  0  0  0
 29 30  1  0  0  0  0
M  END
>  <DATABASE_ID>
DB00542

>  <DATABASE_NAME>
drugbank

>  <SMILES>
O=C1N(c2c(CC[C@@H]1N[C@@H](CCc1ccccc1)C(OCC)=O)cccc2)CC(O)=O

>  <INCHI_IDENTIFIER>
InChI=1S/C24H28N2O5/c1-2-31-24(30)20(14-12-17-8-4-3-5-9-17)25-19-15-13-18-10-6-7-11-21(18)26(23(19)29)16-22(27)28/h3-11,19-20,25H,2,12-16H2,1H3,(H,27,28)/t19-,20-/m0/s1

>  <INCHI_KEY>
InChIKey=XPCFTKFZXHTYIP-PMACEKPBSA-N

>  <JCHEM_ACCEPTOR_COUNT>
5

>  <JCHEM_AVERAGE_POLARIZABILITY>
44.976845

>  <JCHEM_BIOAVAILABILITY>
1

>  <JCHEM_DONOR_COUNT>
2

>  <JCHEM_EXACT_MASS>
424.19983

>  <JCHEM_FORMAL_CHARGE>
0

>  <JCHEM_FORMULA>
C24H28N2O5

>  <JCHEM_GHOSE_FILTER>
1

>  <JCHEM_IUPAC>
2-[(3S)-3-{[(2S)-1-ethoxy-1-oxo-4-phenylbutan-2-yl]amino}-2-oxo-2,3,4,5-tetrahydro-1H-1-benzazepin-1-yl]acetic acid

>  <ALOGPS_LOGP>
1.14

>  <JCHEM_LOGP>
1.5374391

>  <ALOGPS_LOGS>
-4.6100001

>  <JCHEM_MASS>
424.4895

>  <JCHEM_MDDR_LIKE_RULE>
1

>  <JCHEM_NUMBER_OF_RINGS>
3

>  <JCHEM_PHYSIOLOGICAL_CHARGE>
-1

>  <JCHEM_PKA>
18.005407

>  <JCHEM_PKA_STRONGEST_ACIDIC>
3.5270801

>  <JCHEM_PKA_STRONGEST_BASIC>
5.3594012

>  <JCHEM_POLAR_SURFACE_AREA>
95.940002

>  <JCHEM_REFRACTIVITY>
115.2279

>  <JCHEM_ROTATABLE_BOND_COUNT>
10

>  <JCHEM_RULE_OF_FIVE>
1

>  <ALOGPS_SOLUBILITY>
1.05e-02 g/l

>  <JCHEM_TRADITIONAL_IUPAC>
benazepril

>  <JCHEM_VEBER_RULE>
0

>  <DRUGBANK_ID>
DB00542

>  <DRUG_GROUPS>
approved; investigational

>  <GENERIC_NAME>
Benazepril

>  <SYNONYMS>
Benazeprilum

>  <BRANDS>
Briem; Cibacen; Cibacene; Lotensin

>  <SALTS>
Benazepril Hydrochloride

$$$$
Amoxapine
 OpenBabel02121510022D

 22 25  0  0  0  0  0  0  0  0999 V2000
    1.5840   -0.9950    0.0000 Cl  0  0  0  0  0  0  0  0  0  0  0  0
    4.6240   -2.0460    0.0000 O   0  0  0  0  0  0  0  0  0  0  0  0
    3.8840    0.4030    0.0000 N   0  0  0  0  0  0  0  0  0  0  0  0
    3.1970    1.8300    0.0000 N   0  0  0  0  0  0  0  0  0  0  0  0
    5.0200   -0.3110    0.0000 N   0  0  0  0  0  0  0  0  0  0  0  0
    4.3300    1.0570    0.0000 C   0  0  0  0  0  0  0  0  0  0  0  0
    3.0940    0.4620    0.0000 C   0  0  0  0  0  0  0  0  0  0  0  0
    3.9870    1.7710    0.0000 C   0  0  0  0  0  0  0  0  0  0  0  0
    2.7500    1.1760    0.0000 C   0  0  0  0  0  0  0  0  0  0  0  0
    4.2280   -0.3110    0.0000 C   0  0  0  0  0  0  0  0  0  0  0  0
    3.7340   -0.9300    0.0000 C   0  0  0  0  0  0  0  0  0  0  0  0
    3.9100   -1.7020    0.0000 C   0  0  0  0  0  0  0  0  0  0  0  0
    5.5140   -0.9300    0.0000 C   0  0  0  0  0  0  0  0  0  0  0  0
    2.9490   -0.6750    0.0000 C   0  0  0  0  0  0  0  0  0  0  0  0
    5.3370   -1.7020    0.0000 C   0  0  0  0  0  0  0  0  0  0  0  0
    3.3140   -2.2730    0.0000 C   0  0  0  0  0  0  0  0  0  0  0  0
    2.3400   -1.2310    0.0000 C   0  0  0  0  0  0  0  0  0  0  0  0
    2.5240   -2.0350    0.0000 C   0  0  0  0  0  0  0  0  0  0  0  0
    6.2980   -0.6750    0.0000 C   0  0  0  0  0  0  0  0  0  0  0  0
    5.9330   -2.2730    0.0000 C   0  0  0  0  0  0  0  0  0  0  0  0
    6.9070   -1.2310    0.0000 C   0  0  0  0  0  0  0  0  0  0  0  0
    6.7240   -2.0350    0.0000 C   0  0  0  0  0  0  0  0  0  0  0  0
  1 17  1  0  0  0  0
  2 12  1  0  0  0  0
  2 15  1  0  0  0  0
  3  6  1  0  0  0  0
  3  7  1  0  0  0  0
  3 10  1  0  0  0  0
  4  8  1  0  0  0  0
  4  9  1  0  0  0  0
  5 10  2  0  0  0  0
  5 13  1  0  0  0  0
  6  8  1  0  0  0  0
  7  9  1  0  0  0  0
 10 11  1  0  0  0  0
 11 12  2  0  0  0  0
 11 14  1  0  0  0  0
 12 16  1  0  0  0  0
 13 15  2  0  0  0  0
 13 19  1  0  0  0  0
 14 17  2  0  0  0  0
 15 20  1  0  0  0  0
 16 18  2  0  0  0  0
 17 18  1  0  0  0  0
 19 21  2  0  0  0  0
 20 22  2  0  0  0  0
 21 22  1  0  0  0  0
M  END
>  <DATABASE_ID>
DB00543

>  <DATABASE_NAME>
drugbank

>  <SMILES>
Clc1cc2c(Oc3c(N=C2N2CCNCC2)cccc3)cc1

>  <INCHI_IDENTIFIER>
InChI=1S/C17H16ClN3O/c18-12-5-6-15-13(11-12)17(21-9-7-19-8-10-21)20-14-3-1-2-4-16(14)22-15/h1-6,11,19H,7-10H2

>  <INCHI_KEY>
InChIKey=QWGDMFLQWFTERH-UHFFFAOYSA-N

>  <JCHEM_ACCEPTOR_COUNT>
3

>  <JCHEM_AVERAGE_POLARIZABILITY>
32.817165

>  <JCHEM_BIOAVAILABILITY>
1

>  <JCHEM_DONOR_COUNT>
1

>  <JCHEM_EXACT_MASS>
313.09818

>  <JCHEM_FORMAL_CHARGE>
0

>  <JCHEM_FORMULA>
C17H16ClN3O

>  <JCHEM_GHOSE_FILTER>
1

>  <JCHEM_IUPAC>
13-chloro-10-(piperazin-1-yl)-2-oxa-9-azatricyclo[9.4.0.0^{3,8}]pentadeca-1(11),3(8),4,6,9,12,14-heptaene

>  <ALOGPS_LOGP>
2.8199999

>  <JCHEM_LOGP>
3.0775545

>  <ALOGPS_LOGS>
-3.26

>  <JCHEM_MASS>
313.78101

>  <JCHEM_MDDR_LIKE_RULE>
0

>  <JCHEM_NUMBER_OF_RINGS>
4

>  <JCHEM_PHYSIOLOGICAL_CHARGE>
1

>  <JCHEM_PKA_STRONGEST_BASIC>
8.8259468

>  <JCHEM_POLAR_SURFACE_AREA>
36.860001

>  <JCHEM_REFRACTIVITY>
89.816399

>  <JCHEM_ROTATABLE_BOND_COUNT>
0

>  <JCHEM_RULE_OF_FIVE>
1

>  <ALOGPS_SOLUBILITY>
1.71e-01 g/l

>  <JCHEM_TRADITIONAL_IUPAC>
13-chloro-10-(piperazin-1-yl)-2-oxa-9-azatricyclo[9.4.0.0^{3,8}]pentadeca-1(11),3(8),4,6,9,12,14-heptaene

>  <JCHEM_VEBER_RULE>
1

>  <DRUGBANK_ID>
DB00543

>  <DRUG_GROUPS>
approved

>  <GENERIC_NAME>
Amoxapine

>  <SYNONYMS>
Amoxapin; Amoxapina; Amoxapinum; Amoxepine

>  <BRANDS>
Adisen; Amolife; Amoxan; Asendin; Asendis; Défanyl; Demolox; Oxamine; Oxcap

$$$$
Pyridostigmine
 OpenBabel02121510022D

 13 13  0  0  0  0  0  0  0  0999 V2000
    3.0790    0.2060    0.0000 O   0  0  0  0  0  0  0  0  0  0  0  0
    3.7940    1.4440    0.0000 O   0  0  0  0  0  0  0  0  0  0  0  0
    4.5080   -1.4440    0.0000 N   0  3  0  0  0  0  0  0  0  0  0  0
    2.3640    1.4440    0.0000 N   0  0  0  0  0  0  0  0  0  0  0  0
    3.7940   -0.2060    0.0000 C   0  0  0  0  0  0  0  0  0  0  0  0
    3.7940   -1.0310    0.0000 C   0  0  0  0  0  0  0  0  0  0  0  0
    5.2220   -1.0310    0.0000 C   0  0  0  0  0  0  0  0  0  0  0  0
    4.5080    0.2060    0.0000 C   0  0  0  0  0  0  0  0  0  0  0  0
    5.2220   -0.2060    0.0000 C   0  0  0  0  0  0  0  0  0  0  0  0
    4.5080   -2.2690    0.0000 C   0  0  0  0  0  0  0  0  0  0  0  0
    3.0790    1.0310    0.0000 C   0  0  0  0  0  0  0  0  0  0  0  0
    2.3640    2.2690    0.0000 C   0  0  0  0  0  0  0  0  0  0  0  0
    1.6500    1.0310    0.0000 C   0  0  0  0  0  0  0  0  0  0  0  0
  1  5  1  0  0  0  0
  1 11  1  0  0  0  0
  2 11  2  0  0  0  0
  3  6  2  0  0  0  0
  3  7  1  0  0  0  0
  3 10  1  0  0  0  0
  4 11  1  0  0  0  0
  4 12  1  0  0  0  0
  4 13  1  0  0  0  0
  5  6  1  0  0  0  0
  5  8  2  0  0  0  0
  7  9  2  0  0  0  0
  8  9  1  0  0  0  0
M  CHG  1   3   1
M  END
>  <DATABASE_ID>
DB00545

>  <DATABASE_NAME>
drugbank

>  <SMILES>
O(C(=O)N(C)C)c1ccc[n+](c1)C

>  <INCHI_IDENTIFIER>
InChI=1S/C9H13N2O2/c1-10(2)9(12)13-8-5-4-6-11(3)7-8/h4-7H,1-3H3/q+1

>  <INCHI_KEY>
InChIKey=RVOLLAQWKVFTGE-UHFFFAOYSA-N

>  <JCHEM_ACCEPTOR_COUNT>
1

>  <JCHEM_AVERAGE_POLARIZABILITY>
19.381805

>  <JCHEM_BIOAVAILABILITY>
1

>  <JCHEM_DONOR_COUNT>
0

>  <JCHEM_EXACT_MASS>
181.0977

>  <JCHEM_FORMAL_CHARGE>
1

>  <JCHEM_FORMULA>
C9H13N2O2

>  <JCHEM_GHOSE_FILTER>
0

>  <JCHEM_IUPAC>
3-[(dimethylcarbamoyl)oxy]-1-methylpyridin-1-ium

>  <ALOGPS_LOGP>
-3.1300001

>  <JCHEM_LOGP>
-3.4667275

>  <ALOGPS_LOGS>
-2.3199999

>  <JCHEM_MASS>
181.2117

>  <JCHEM_MDDR_LIKE_RULE>
0

>  <JCHEM_NUMBER_OF_RINGS>
1

>  <JCHEM_PHYSIOLOGICAL_CHARGE>
1

>  <JCHEM_PKA_STRONGEST_ACIDIC>
19.526827

>  <JCHEM_POLAR_SURFACE_AREA>
33.419998

>  <JCHEM_REFRACTIVITY>
49.659

>  <JCHEM_ROTATABLE_BOND_COUNT>
2

>  <JCHEM_RULE_OF_FIVE>
1

>  <ALOGPS_SOLUBILITY>
1.04e+00 g/l

>  <JCHEM_TRADITIONAL_IUPAC>
pyridostigmine

>  <JCHEM_VEBER_RULE>
1

>  <DRUGBANK_ID>
DB00545

>  <DRUG_GROUPS>
approved

>  <GENERIC_NAME>
Pyridostigmine

>  <SYNONYMS>
Bromure de Pyridostigmine; Bromuro de piridostigmina; Pyridostigmin bromid; Pyridostigmini Bromidum

>  <BRANDS>
Amiasten; Amygra; Antilon; Astinon; Kalymin; Kalymin forte; Kalymin N; Kalymin retard; Meshanon60; Mestinon; Mestinon retard; Mestinon-SR; Myestin; Pyridostigmine Bromide; Pyrimine; Regonol

>  <SALTS>
Pyridostigmine Bromide

$$$$
Zafirlukast
 OpenBabel02121510022D

 41 45  0  0  0  0  0  0  0  0999 V2000
   12.5720    1.7030    0.0000 S   0  0  0  0  0  0  0  0  0  0  0  0
    3.6700   -0.5550    0.0000 O   0  0  0  0  0  0  0  0  0  0  0  0
    4.3850   -1.7920    0.0000 O   0  0  0  0  0  0  0  0  0  0  0  0
    8.7920    1.6370    0.0000 O   0  0  0  0  0  0  0  0  0  0  0  0
   12.0600    0.1350    0.0000 O   0  0  0  0  0  0  0  0  0  0  0  0
   12.7420    0.8960    0.0000 O   0  0  0  0  0  0  0  0  0  0  0  0
   12.4020    2.5110    0.0000 O   0  0  0  0  0  0  0  0  0  0  0  0
    8.0230   -2.0440    0.0000 N   0  0  0  0  0  0  0  0  0  0  0  0
    5.0990   -0.5550    0.0000 N   0  0  0  0  0  0  0  0  0  0  0  0
   11.7650    1.5330    0.0000 N   0  0  0  0  0  0  0  0  0  0  0  0
    2.9560   -0.9670    0.0000 C   0  0  0  0  0  0  0  0  0  0  0  0
    2.2020   -0.6320    0.0000 C   0  0  0  0  0  0  0  0  0  0  0  0
    2.8700   -1.7880    0.0000 C   0  0  0  0  0  0  0  0  0  0  0  0
    1.6500   -1.2450    0.0000 C   0  0  0  0  0  0  0  0  0  0  0  0
    2.0620   -1.9590    0.0000 C   0  0  0  0  0  0  0  0  0  0  0  0
    4.3850   -0.9670    0.0000 C   0  0  0  0  0  0  0  0  0  0  0  0
    7.2430   -0.9670    0.0000 C   0  0  0  0  0  0  0  0  0  0  0  0
    8.0230   -0.7160    0.0000 C   0  0  0  0  0  0  0  0  0  0  0  0
    7.2430   -1.7920    0.0000 C   0  0  0  0  0  0  0  0  0  0  0  0
    5.8140   -0.9670    0.0000 C   0  0  0  0  0  0  0  0  0  0  0  0
    8.2800    0.0680    0.0000 C   0  0  0  0  0  0  0  0  0  0  0  0
    6.5280   -0.5550    0.0000 C   0  0  0  0  0  0  0  0  0  0  0  0
    8.5050   -1.3800    0.0000 C   0  0  0  0  0  0  0  0  0  0  0  0
    6.5280   -2.2050    0.0000 C   0  0  0  0  0  0  0  0  0  0  0  0
    5.8140   -1.7920    0.0000 C   0  0  0  0  0  0  0  0  0  0  0  0
    9.0870    0.2390    0.0000 C   0  0  0  0  0  0  0  0  0  0  0  0
    8.2800   -2.8280    0.0000 C   0  0  0  0  0  0  0  0  0  0  0  0
    9.3430    1.0230    0.0000 C   0  0  0  0  0  0  0  0  0  0  0  0
    9.6380   -0.3760    0.0000 C   0  0  0  0  0  0  0  0  0  0  0  0
   10.1500    1.1930    0.0000 C   0  0  0  0  0  0  0  0  0  0  0  0
   10.7020    0.5790    0.0000 C   0  0  0  0  0  0  0  0  0  0  0  0
   10.4450   -0.2050    0.0000 C   0  0  0  0  0  0  0  0  0  0  0  0
   11.5090    0.7490    0.0000 C   0  0  0  0  0  0  0  0  0  0  0  0
   13.3800    1.8740    0.0000 C   0  0  0  0  0  0  0  0  0  0  0  0
   13.9310    1.2590    0.0000 C   0  0  0  0  0  0  0  0  0  0  0  0
    9.0490    2.4210    0.0000 C   0  0  0  0  0  0  0  0  0  0  0  0
   13.6360    2.6580    0.0000 C   0  0  0  0  0  0  0  0  0  0  0  0
   14.7380    1.4300    0.0000 C   0  0  0  0  0  0  0  0  0  0  0  0
   13.6740    0.4750    0.0000 C   0  0  0  0  0  0  0  0  0  0  0  0
   14.4430    2.8280    0.0000 C   0  0  0  0  0  0  0  0  0  0  0  0
   14.9940    2.2140    0.0000 C   0  0  0  0  0  0  0  0  0  0  0  0
  1  6  2  0  0  0  0
  1  7  2  0  0  0  0
  1 10  1  0  0  0  0
  1 34  1  0  0  0  0
  2 11  1  0  0  0  0
  2 16  1  0  0  0  0
  3 16  2  0  0  0  0
  4 28  1  0  0  0  0
  4 36  1  0  0  0  0
  5 33  2  0  0  0  0
  8 19  1  0  0  0  0
  8 23  1  0  0  0  0
  8 27  1  0  0  0  0
  9 16  1  0  0  0  0
  9 20  1  0  0  0  0
 10 33  1  0  0  0  0
 11 12  1  0  0  0  0
 11 13  1  0  0  0  0
 12 14  1  0  0  0  0
 13 15  1  0  0  0  0
 14 15  1  0  0  0  0
 17 18  1  0  0  0  0
 17 19  1  0  0  0  0
 17 22  2  0  0  0  0
 18 21  1  0  0  0  0
 18 23  2  0  0  0  0
 19 24  2  0  0  0  0
 20 22  1  0  0  0  0
 20 25  2  0  0  0  0
 21 26  1  0  0  0  0
 24 25  1  0  0  0  0
 26 28  2  0  0  0  0
 26 29  1  0  0  0  0
 28 30  1  0  0  0  0
 29 32  2  0  0  0  0
 30 31  2  0  0  0  0
 31 32  1  0  0  0  0
 31 33  1  0  0  0  0
 34 35  2  0  0  0  0
 34 37  1  0  0  0  0
 35 38  1  0  0  0  0
 35 39  1  0  0  0  0
 37 40  2  0  0  0  0
 38 41  2  0  0  0  0
 40 41  1  0  0  0  0
M  END
>  <DATABASE_ID>
DB00549

>  <DATABASE_NAME>
drugbank

>  <SMILES>
S(=O)(=O)(NC(=O)c1cc(OC)c(cc1)Cc1c2cc(NC(OC3CCCC3)=O)ccc2n(c1)C)c1ccccc1C

>  <INCHI_IDENTIFIER>
InChI=1S/C31H33N3O6S/c1-20-8-4-7-11-29(20)41(37,38)33-30(35)22-13-12-21(28(17-22)39-3)16-23-19-34(2)27-15-14-24(18-26(23)27)32-31(36)40-25-9-5-6-10-25/h4,7-8,11-15,17-19,25H,5-6,9-10,16H2,1-3H3,(H,32,36)(H,33,35)

>  <INCHI_KEY>
InChIKey=YEEZWCHGZNKEEK-UHFFFAOYSA-N

>  <JCHEM_ACCEPTOR_COUNT>
6

>  <JCHEM_AVERAGE_POLARIZABILITY>
62.061787

>  <JCHEM_BIOAVAILABILITY>
0

>  <JCHEM_DONOR_COUNT>
2

>  <JCHEM_EXACT_MASS>
575.20898

>  <JCHEM_FORMAL_CHARGE>
0

>  <JCHEM_FORMULA>
C31H33N3O6S

>  <JCHEM_GHOSE_FILTER>
0

>  <JCHEM_IUPAC>
cyclopentyl N-{3-[(2-methoxy-4-{[(2-methylbenzene)sulfonyl]carbamoyl}phenyl)methyl]-1-methyl-1H-indol-5-yl}carbamate

>  <ALOGPS_LOGP>
4.8400002

>  <JCHEM_LOGP>
6.4037447

>  <ALOGPS_LOGS>
-5.7800002

>  <JCHEM_MASS>
575.67499

>  <JCHEM_MDDR_LIKE_RULE>
1

>  <JCHEM_NUMBER_OF_RINGS>
5

>  <JCHEM_PHYSIOLOGICAL_CHARGE>
-1

>  <JCHEM_PKA>
12.933286

>  <JCHEM_PKA_STRONGEST_ACIDIC>
4.2852969

>  <JCHEM_PKA_STRONGEST_BASIC>
-1.0817441

>  <JCHEM_POLAR_SURFACE_AREA>
115.73

>  <JCHEM_REFRACTIVITY>
158.5769

>  <JCHEM_ROTATABLE_BOND_COUNT>
8

>  <JCHEM_RULE_OF_FIVE>
0

>  <ALOGPS_SOLUBILITY>
9.62e-04 g/l

>  <JCHEM_TRADITIONAL_IUPAC>
cyclopentyl N-[3-({2-methoxy-4-[(2-methylbenzenesulfonyl)carbamoyl]phenyl}methyl)-1-methylindol-5-yl]carbamate

>  <JCHEM_VEBER_RULE>
0

>  <DRUGBANK_ID>
DB00549

>  <DRUG_GROUPS>
approved; investigational

>  <GENERIC_NAME>
Zafirlukast

>  <SYNONYMS>
ICI-204,219

>  <BRANDS>
Accolate

$$$$
Propylthiouracil
 OpenBabel02121510022D

 11 11  0  0  0  0  0  0  0  0999 V2000
    5.9370   -0.9820    0.0000 S   0  0  0  0  0  0  0  0  0  0  0  0
    4.5080    1.4930    0.0000 O   0  0  0  0  0  0  0  0  0  0  0  0
    4.5080   -0.9820    0.0000 N   0  0  0  0  0  0  0  0  0  0  0  0
    5.2220    0.2560    0.0000 N   0  0  0  0  0  0  0  0  0  0  0  0
    3.0790   -0.9820    0.0000 C   0  0  0  0  0  0  0  0  0  0  0  0
    3.7940   -0.5690    0.0000 C   0  0  0  0  0  0  0  0  0  0  0  0
    2.3640   -0.5690    0.0000 C   0  0  0  0  0  0  0  0  0  0  0  0
    3.7940    0.2560    0.0000 C   0  0  0  0  0  0  0  0  0  0  0  0
    1.6500   -0.9820    0.0000 C   0  0  0  0  0  0  0  0  0  0  0  0
    5.2220   -0.5690    0.0000 C   0  0  0  0  0  0  0  0  0  0  0  0
    4.5080    0.6680    0.0000 C   0  0  0  0  0  0  0  0  0  0  0  0
  1 10  2  0  0  0  0
  2 11  2  0  0  0  0
  3  6  1  0  0  0  0
  3 10  1  0  0  0  0
  4 10  1  0  0  0  0
  4 11  1  0  0  0  0
  5  6  1  0  0  0  0
  5  7  1  0  0  0  0
  6  8  2  0  0  0  0
  7  9  1  0  0  0  0
  8 11  1  0  0  0  0
M  END
>  <DATABASE_ID>
DB00550

>  <DATABASE_NAME>
drugbank

>  <SMILES>
S=C1NC(=CC(=O)N1)CCC

>  <INCHI_IDENTIFIER>
InChI=1S/C7H10N2OS/c1-2-3-5-4-6(10)9-7(11)8-5/h4H,2-3H2,1H3,(H2,8,9,10,11)

>  <INCHI_KEY>
InChIKey=KNAHARQHSZJURB-UHFFFAOYSA-N

>  <JCHEM_ACCEPTOR_COUNT>
1

>  <JCHEM_AVERAGE_POLARIZABILITY>
17.793221

>  <JCHEM_BIOAVAILABILITY>
1

>  <JCHEM_DONOR_COUNT>
2

>  <JCHEM_EXACT_MASS>
170.05138

>  <JCHEM_FORMAL_CHARGE>
0

>  <JCHEM_FORMULA>
C7H10N2OS

>  <JCHEM_GHOSE_FILTER>
1

>  <JCHEM_IUPAC>
6-propyl-2-sulfanylidene-1,2,3,4-tetrahydropyrimidin-4-one

>  <ALOGPS_LOGP>
1.53

>  <JCHEM_LOGP>
1.2037424

>  <ALOGPS_LOGS>
-2.5599999

>  <JCHEM_MASS>
170.23199

>  <JCHEM_MDDR_LIKE_RULE>
0

>  <JCHEM_NUMBER_OF_RINGS>
1

>  <JCHEM_PHYSIOLOGICAL_CHARGE>
0

>  <JCHEM_PKA>
12.893749

>  <JCHEM_PKA_STRONGEST_ACIDIC>
8.0894423

>  <JCHEM_PKA_STRONGEST_BASIC>
-2.6552918

>  <JCHEM_POLAR_SURFACE_AREA>
41.130001

>  <JCHEM_REFRACTIVITY>
48.904301

>  <JCHEM_ROTATABLE_BOND_COUNT>
2

>  <JCHEM_RULE_OF_FIVE>
1

>  <ALOGPS_SOLUBILITY>
4.66e-01 g/l

>  <JCHEM_TRADITIONAL_IUPAC>
propylthiouracil

>  <JCHEM_VEBER_RULE>
0

>  <DRUGBANK_ID>
DB00550

>  <DRUG_GROUPS>
approved

>  <GENERIC_NAME>
Propylthiouracil

>  <SYNONYMS>
Propiltiouracilo; Propylthiouracil; Propylthiouracile; Propylthiouracilum

>  <BRANDS>
Antiroid; Propil; Propilracil; Propycil; Propyl-Thyracil; Propylthiouracil; Proracyl; Prothiucil; Prothuril; PTU; Thiuragyl; Thyrosan; Tiotil; Tirostat; Uracil

$$$$
Acetohydroxamic Acid
 OpenBabel02121510022D

  5  4  0  0  0  0  0  0  0  0999 V2000
    2.0930    0.0500    0.0000 O   0  0  0  0  0  0  0  0  0  0  0  0
    3.5220    0.8740    0.0000 O   0  0  0  0  0  0  0  0  0  0  0  0
    2.8080   -0.3630    0.0000 N   0  0  0  0  0  0  0  0  0  0  0  0
    3.5220    0.0500    0.0000 C   0  0  0  0  0  0  0  0  0  0  0  0
    4.2360   -0.3630    0.0000 C   0  0  0  0  0  0  0  0  0  0  0  0
  1  3  1  0  0  0  0
  2  4  2  0  0  0  0
  3  4  1  0  0  0  0
  4  5  1  0  0  0  0
M  END
>  <DATABASE_ID>
DB00551

>  <DATABASE_NAME>
drugbank

>  <SMILES>
O=C(NO)C

>  <INCHI_IDENTIFIER>
InChI=1S/C2H5NO2/c1-2(4)3-5/h5H,1H3,(H,3,4)

>  <INCHI_KEY>
InChIKey=RRUDCFGSUDOHDG-UHFFFAOYSA-N

>  <JCHEM_ACCEPTOR_COUNT>
2

>  <JCHEM_AVERAGE_POLARIZABILITY>
6.6037455

>  <JCHEM_BIOAVAILABILITY>
1

>  <JCHEM_DONOR_COUNT>
2

>  <JCHEM_EXACT_MASS>
75.032028

>  <JCHEM_FORMAL_CHARGE>
0

>  <JCHEM_FORMULA>
C2H5NO2

>  <JCHEM_GHOSE_FILTER>
0

>  <JCHEM_IUPAC>
N-hydroxyacetamide

>  <ALOGPS_LOGP>
-1.46

>  <JCHEM_LOGP>
-1.03347

>  <ALOGPS_LOGS>
0.82999998

>  <JCHEM_MASS>
75.066597

>  <JCHEM_MDDR_LIKE_RULE>
0

>  <JCHEM_NUMBER_OF_RINGS>
0

>  <JCHEM_PHYSIOLOGICAL_CHARGE>
0

>  <JCHEM_PKA>
17.377703

>  <JCHEM_PKA_STRONGEST_ACIDIC>
8.9435215

>  <JCHEM_PKA_STRONGEST_BASIC>
-5.4470935

>  <JCHEM_POLAR_SURFACE_AREA>
49.330002

>  <JCHEM_REFRACTIVITY>
16.230499

>  <JCHEM_ROTATABLE_BOND_COUNT>
0

>  <JCHEM_RULE_OF_FIVE>
1

>  <ALOGPS_SOLUBILITY>
5.09e+02 g/l

>  <JCHEM_TRADITIONAL_IUPAC>
acetohydroxamic acid

>  <JCHEM_VEBER_RULE>
0

>  <DRUGBANK_ID>
DB00551

>  <DRUG_GROUPS>
approved

>  <GENERIC_NAME>
Acetohydroxamic Acid

>  <SYNONYMS>
Acethydroxamsaure; Acetic acid, oxime; Acetohydroximic acid; Acetylhydroxamic acid; AHA; Cetohyroxamic acid; Methylhydroxamic acid; N-Hydroxyacetamide

>  <BRANDS>
Lithostat

$$$$
Methoxsalen
 OpenBabel02121510022D

 16 18  0  0  0  0  0  0  0  0999 V2000
    6.0580    0.0600    0.0000 O   0  0  0  0  0  0  0  0  0  0  0  0
    3.1100    0.2490    0.0000 O   0  0  0  0  0  0  0  0  0  0  0  0
    4.5620    1.0460    0.0000 O   0  0  0  0  0  0  0  0  0  0  0  0
    1.6500    0.2400    0.0000 O   0  0  0  0  0  0  0  0  0  0  0  0
    5.2770   -1.0170    0.0000 C   0  0  0  0  0  0  0  0  0  0  0  0
    5.2770   -0.1920    0.0000 C   0  0  0  0  0  0  0  0  0  0  0  0
    3.8480   -1.0170    0.0000 C   0  0  0  0  0  0  0  0  0  0  0  0
    3.8480   -0.1920    0.0000 C   0  0  0  0  0  0  0  0  0  0  0  0
    4.5620    0.2200    0.0000 C   0  0  0  0  0  0  0  0  0  0  0  0
    4.5620   -1.4300    0.0000 C   0  0  0  0  0  0  0  0  0  0  0  0
    6.0580   -1.2680    0.0000 C   0  0  0  0  0  0  0  0  0  0  0  0
    3.1100   -1.4580    0.0000 C   0  0  0  0  0  0  0  0  0  0  0  0
    6.5390   -0.6040    0.0000 C   0  0  0  0  0  0  0  0  0  0  0  0
    2.3630   -1.0340    0.0000 C   0  0  0  0  0  0  0  0  0  0  0  0
    2.3630   -0.1750    0.0000 C   0  0  0  0  0  0  0  0  0  0  0  0
    5.2770    1.4580    0.0000 C   0  0  0  0  0  0  0  0  0  0  0  0
  1  6  1  0  0  0  0
  1 13  1  0  0  0  0
  2  8  1  0  0  0  0
  2 15  1  0  0  0  0
  3  9  1  0  0  0  0
  3 16  1  0  0  0  0
  4 15  2  0  0  0  0
  5  6  1  0  0  0  0
  5 10  2  0  0  0  0
  5 11  1  0  0  0  0
  6  9  2  0  0  0  0
  7  8  2  0  0  0  0
  7 10  1  0  0  0  0
  7 12  1  0  0  0  0
  8  9  1  0  0  0  0
 11 13  2  0  0  0  0
 12 14  2  0  0  0  0
 14 15  1  0  0  0  0
M  END
>  <DATABASE_ID>
DB00553

>  <DATABASE_NAME>
drugbank

>  <SMILES>
O1c2c(C=CC1=O)cc1c(occ1)c2OC

>  <INCHI_IDENTIFIER>
InChI=1S/C12H8O4/c1-14-12-10-8(4-5-15-10)6-7-2-3-9(13)16-11(7)12/h2-6H,1H3

>  <INCHI_KEY>
InChIKey=QXKHYNVANLEOEG-UHFFFAOYSA-N

>  <JCHEM_ACCEPTOR_COUNT>
2

>  <JCHEM_AVERAGE_POLARIZABILITY>
20.978884

>  <JCHEM_BIOAVAILABILITY>
1

>  <JCHEM_DONOR_COUNT>
0

>  <JCHEM_EXACT_MASS>
216.04225

>  <JCHEM_FORMAL_CHARGE>
0

>  <JCHEM_FORMULA>
C12H8O4

>  <JCHEM_GHOSE_FILTER>
1

>  <JCHEM_IUPAC>
9-methoxy-2H-furo[3,2-g]chromen-2-one

>  <ALOGPS_LOGP>
2.0999999

>  <JCHEM_LOGP>
1.7848117

>  <ALOGPS_LOGS>
-3.1199999

>  <JCHEM_MASS>
216.1895

>  <JCHEM_MDDR_LIKE_RULE>
0

>  <JCHEM_NUMBER_OF_RINGS>
3

>  <JCHEM_PHYSIOLOGICAL_CHARGE>
0

>  <JCHEM_PKA_STRONGEST_BASIC>
-3.4541335

>  <JCHEM_POLAR_SURFACE_AREA>
48.669998

>  <JCHEM_REFRACTIVITY>
56.852901

>  <JCHEM_ROTATABLE_BOND_COUNT>
1

>  <JCHEM_RULE_OF_FIVE>
1

>  <ALOGPS_SOLUBILITY>
1.64e-01 g/l

>  <JCHEM_TRADITIONAL_IUPAC>
methoxsalen

>  <JCHEM_VEBER_RULE>
0

>  <DRUGBANK_ID>
DB00553

>  <DRUG_GROUPS>
approved

>  <GENERIC_NAME>
Methoxsalen

>  <SYNONYMS>
Ammoidin; Methoxsalen; Méthoxsalène; Xanthotoxin

>  <BRANDS>
Deltasoralen; Meladinine; Oxsoralen; Oxsoralen-Ultra; Uvadex

$$$$
Piroxicam
 OpenBabel02121510022D

 23 25  0  0  1  0  0  0  0  0999 V2000
   -3.4180    0.7660    0.0000 C   0  0  0  0  0  0  0  0  0  0  0  0
   -4.1320    1.1790    0.0000 C   0  0  0  0  0  0  0  0  0  0  0  0
   -4.8470    0.7660    0.0000 C   0  0  0  0  0  0  0  0  0  0  0  0
   -4.8470   -0.0590    0.0000 C   0  0  0  0  0  0  0  0  0  0  0  0
   -4.1320   -0.4710    0.0000 C   0  0  0  0  0  0  0  0  0  0  0  0
   -3.4180   -0.0590    0.0000 C   0  0  0  0  0  0  0  0  0  0  0  0
   -2.7030   -0.4710    0.0000 S   0  0  0  0  0  0  0  0  0  0  0  0
   -1.9890   -0.0590    0.0000 N   0  0  0  0  0  0  0  0  0  0  0  0
   -1.9890    0.7660    0.0000 C   0  0  0  0  0  0  0  0  0  0  0  0
   -2.7030    1.1790    0.0000 C   0  0  0  0  0  0  0  0  0  0  0  0
   -1.2740    1.1790    0.0000 C   0  0  0  0  0  0  0  0  0  0  0  0
   -1.2740    2.0040    0.0000 N   0  0  0  0  0  0  0  0  0  0  0  0
   -0.5600    2.4160    0.0000 C   0  0  0  0  0  0  0  0  0  0  0  0
    0.1540    3.6540    0.0000 C   0  0  0  0  0  0  0  0  0  0  0  0
   -0.5600    3.2410    0.0000 N   0  0  0  0  0  0  0  0  0  0  0  0
    0.1540    2.0040    0.0000 C   0  0  0  0  0  0  0  0  0  0  0  0
    0.8690    2.4160    0.0000 C   0  0  0  0  0  0  0  0  0  0  0  0
    0.8690    3.2410    0.0000 C   0  0  0  0  0  0  0  0  0  0  0  0
   -1.2740   -0.4710    0.0000 C   0  0  0  0  0  0  0  0  0  0  0  0
   -2.7030    2.0040    0.0000 O   0  0  0  0  0  0  0  0  0  0  0  0
   -0.5600    0.7660    0.0000 O   0  0  0  0  0  0  0  0  0  0  0  0
   -3.2870   -1.0550    0.0000 O   0  0  0  0  0  0  0  0  0  0  0  0
   -2.1200   -1.0550    0.0000 O   0  0  0  0  0  0  0  0  0  0  0  0
  1  2  1  0  0  0  0
  1  6  2  0  0  0  0
  1 10  1  0  0  0  0
  2  3  2  0  0  0  0
  3  4  1  0  0  0  0
  4  5  2  0  0  0  0
  5  6  1  0  0  0  0
  6  7  1  0  0  0  0
  7  8  1  0  0  0  0
  7 22  2  0  0  0  0
  7 23  2  0  0  0  0
  8  9  1  0  0  0  0
  8 19  1  0  0  0  0
  9 10  2  0  0  0  0
  9 11  1  0  0  0  0
 10 20  1  0  0  0  0
 11 12  1  0  0  0  0
 11 21  2  0  0  0  0
 12 13  1  0  0  0  0
 13 15  2  0  0  0  0
 13 16  1  0  0  0  0
 14 15  1  0  0  0  0
 14 18  2  0  0  0  0
 16 17  2  0  0  0  0
 17 18  1  0  0  0  0
M  END
>  <DATABASE_ID>
DB00554

>  <DATABASE_NAME>
drugbank

>  <SMILES>
S1(=O)(=O)N(C)C(C(=O)Nc2ncccc2)=C(O)c2c1cccc2

>  <INCHI_IDENTIFIER>
InChI=1S/C15H13N3O4S/c1-18-13(15(20)17-12-8-4-5-9-16-12)14(19)10-6-2-3-7-11(10)23(18,21)22/h2-9,19H,1H3,(H,16,17,20)

>  <INCHI_KEY>
InChIKey=QYSPLQLAKJAUJT-UHFFFAOYSA-N

>  <JCHEM_ACCEPTOR_COUNT>
5

>  <JCHEM_AVERAGE_POLARIZABILITY>
32.27132

>  <JCHEM_BIOAVAILABILITY>
1

>  <JCHEM_DONOR_COUNT>
2

>  <JCHEM_EXACT_MASS>
331.06268

>  <JCHEM_FORMAL_CHARGE>
0

>  <JCHEM_FORMULA>
C15H13N3O4S

>  <JCHEM_GHOSE_FILTER>
1

>  <JCHEM_IUPAC>
4-hydroxy-2-methyl-1,1-dioxo-N-(pyridin-2-yl)-2H-1$l^{6},2-benzothiazine-3-carboxamide

>  <ALOGPS_LOGP>
2.2

>  <JCHEM_LOGP>
0.59988385

>  <ALOGPS_LOGS>
-3.3699999

>  <JCHEM_MASS>
331.34601

>  <JCHEM_MDDR_LIKE_RULE>
0

>  <JCHEM_NUMBER_OF_RINGS>
3

>  <JCHEM_PHYSIOLOGICAL_CHARGE>
-1

>  <JCHEM_PKA>
11.734046

>  <JCHEM_PKA_STRONGEST_ACIDIC>
4.7604237

>  <JCHEM_PKA_STRONGEST_BASIC>
3.7924979

>  <JCHEM_POLAR_SURFACE_AREA>
99.599998

>  <JCHEM_REFRACTIVITY>
87.043503

>  <JCHEM_ROTATABLE_BOND_COUNT>
2

>  <JCHEM_RULE_OF_FIVE>
1

>  <ALOGPS_SOLUBILITY>
1.43e-01 g/l

>  <JCHEM_TRADITIONAL_IUPAC>
piroxicam

>  <JCHEM_VEBER_RULE>
0

>  <DRUGBANK_ID>
DB00554

>  <DRUG_GROUPS>
approved; investigational

>  <GENERIC_NAME>
Piroxicam

>  <SYNONYMS>
Pyroxycam

>  <BRANDS>
Bruxicam; Dolonex; Erazon; Feldene; Geldène; Improntal; Roxam; Roxiden; Sasulen; Solocalm; Trast

$$$$
Lamotrigine
 OpenBabel02121510022D

 16 17  0  0  0  0  0  0  0  0999 V2000
    4.9510    0.9530    0.0000 Cl  0  0  0  0  0  0  0  0  0  0  0  0
    4.9510    2.6030    0.0000 Cl  0  0  0  0  0  0  0  0  0  0  0  0
    4.2360   -0.2850    0.0000 N   0  0  0  0  0  0  0  0  0  0  0  0
    2.8080   -1.1100    0.0000 N   0  0  0  0  0  0  0  0  0  0  0  0
    2.0930    0.1280    0.0000 N   0  0  0  0  0  0  0  0  0  0  0  0
    4.2360   -1.1100    0.0000 N   0  0  0  0  0  0  0  0  0  0  0  0
    3.5220   -2.3470    0.0000 N   0  0  0  0  0  0  0  0  0  0  0  0
    3.5220    0.9530    0.0000 C   0  0  0  0  0  0  0  0  0  0  0  0
    3.5220    0.1280    0.0000 C   0  0  0  0  0  0  0  0  0  0  0  0
    4.2360    1.3650    0.0000 C   0  0  0  0  0  0  0  0  0  0  0  0
    2.8080    1.3650    0.0000 C   0  0  0  0  0  0  0  0  0  0  0  0
    2.8080   -0.2850    0.0000 C   0  0  0  0  0  0  0  0  0  0  0  0
    4.2360    2.1900    0.0000 C   0  0  0  0  0  0  0  0  0  0  0  0
    2.8080    2.1900    0.0000 C   0  0  0  0  0  0  0  0  0  0  0  0
    3.5220    2.6030    0.0000 C   0  0  0  0  0  0  0  0  0  0  0  0
    3.5220   -1.5220    0.0000 C   0  0  0  0  0  0  0  0  0  0  0  0
  1 10  1  0  0  0  0
  2 13  1  0  0  0  0
  3  6  1  0  0  0  0
  3  9  2  0  0  0  0
  4 12  2  0  0  0  0
  4 16  1  0  0  0  0
  5 12  1  0  0  0  0
  6 16  2  0  0  0  0
  7 16  1  0  0  0  0
  8  9  1  0  0  0  0
  8 10  2  0  0  0  0
  8 11  1  0  0  0  0
  9 12  1  0  0  0  0
 10 13  1  0  0  0  0
 11 14  2  0  0  0  0
 13 15  2  0  0  0  0
 14 15  1  0  0  0  0
M  END
>  <DATABASE_ID>
DB00555

>  <DATABASE_NAME>
drugbank

>  <SMILES>
Clc1c(cccc1Cl)-c1nnc(nc1N)N

>  <INCHI_IDENTIFIER>
InChI=1S/C9H7Cl2N5/c10-5-3-1-2-4(6(5)11)7-8(12)14-9(13)16-15-7/h1-3H,(H4,12,13,14,16)

>  <INCHI_KEY>
InChIKey=PYZRQGJRPPTADH-UHFFFAOYSA-N

>  <JCHEM_ACCEPTOR_COUNT>
5

>  <JCHEM_AVERAGE_POLARIZABILITY>
23.104298

>  <JCHEM_BIOAVAILABILITY>
1

>  <JCHEM_DONOR_COUNT>
2

>  <JCHEM_EXACT_MASS>
255.00786

>  <JCHEM_FORMAL_CHARGE>
0

>  <JCHEM_FORMULA>
C9H7Cl2N5

>  <JCHEM_GHOSE_FILTER>
1

>  <JCHEM_IUPAC>
6-(2,3-dichlorophenyl)-1,2,4-triazine-3,5-diamine

>  <ALOGPS_LOGP>
1.87

>  <JCHEM_LOGP>
1.9265221

>  <ALOGPS_LOGS>
-2.72

>  <JCHEM_MASS>
256.091

>  <JCHEM_MDDR_LIKE_RULE>
0

>  <JCHEM_NUMBER_OF_RINGS>
2

>  <JCHEM_PHYSIOLOGICAL_CHARGE>
0

>  <JCHEM_PKA>
19.215391

>  <JCHEM_PKA_STRONGEST_ACIDIC>
14.979241

>  <JCHEM_PKA_STRONGEST_BASIC>
5.8742962

>  <JCHEM_POLAR_SURFACE_AREA>
90.709999

>  <JCHEM_REFRACTIVITY>
66.619698

>  <JCHEM_ROTATABLE_BOND_COUNT>
1

>  <JCHEM_RULE_OF_FIVE>
1

>  <ALOGPS_SOLUBILITY>
4.88e-01 g/l

>  <JCHEM_TRADITIONAL_IUPAC>
lamotrigine

>  <JCHEM_VEBER_RULE>
0

>  <DRUGBANK_ID>
DB00555

>  <DRUG_GROUPS>
approved; investigational

>  <GENERIC_NAME>
Lamotrigine

>  <SYNONYMS>
Lamotrigina; Lamotrigine; Lamotriginum

>  <BRANDS>
Convulsan; Crisomet; Dafex; Daksol; Danoptin; Dezepil; Elmendos; Epilepax; Epimil; Epiral; Epitec; Epitrigine; Labileno; Lambipol; Lamect; Lameptil; Lameptil S; Lametec; Lamez; Lamictal; Lamictal CD; Lamictal XR; Lamictin; Lamotrix; Larig; Medotrigin; Mogine; Trimolep; Trogine; Xebarin

$$$$
Hydroxyzine
 OpenBabel02121510022D

 26 28  0  0  1  0  0  0  0  0999 V2000
    1.6500   -4.1750    0.0000 Cl  0  0  0  0  0  0  0  0  0  0  0  0
    5.2220    2.0130    0.0000 O   0  0  0  0  0  0  0  0  0  0  0  0
    6.6520    3.6630    0.0000 O   0  0  0  0  0  0  0  0  0  0  0  0
    4.5080   -1.7000    0.0000 N   0  0  0  0  0  0  0  0  0  0  0  0
    4.5080   -0.0500    0.0000 N   0  0  0  0  0  0  0  0  0  0  0  0
    5.2220   -1.2870    0.0000 C   0  0  0  0  0  0  0  0  0  0  0  0
    3.7940   -1.2870    0.0000 C   0  0  0  0  0  0  0  0  0  0  0  0
    5.2220   -0.4620    0.0000 C   0  0  0  0  0  0  0  0  0  0  0  0
    3.7940   -0.4620    0.0000 C   0  0  0  0  0  0  0  0  0  0  0  0
    4.5080   -2.5250    0.0000 C   0  0  3  0  0  0  0  0  0  0  0  0
    4.5080    0.7760    0.0000 C   0  0  0  0  0  0  0  0  0  0  0  0
    3.7940   -2.9370    0.0000 C   0  0  0  0  0  0  0  0  0  0  0  0
    5.2220   -2.9370    0.0000 C   0  0  0  0  0  0  0  0  0  0  0  0
    5.2220    1.1880    0.0000 C   0  0  0  0  0  0  0  0  0  0  0  0
    3.7940   -3.7620    0.0000 C   0  0  0  0  0  0  0  0  0  0  0  0
    3.0790   -2.5250    0.0000 C   0  0  0  0  0  0  0  0  0  0  0  0
    5.9370   -2.5250    0.0000 C   0  0  0  0  0  0  0  0  0  0  0  0
    5.2220   -3.7620    0.0000 C   0  0  0  0  0  0  0  0  0  0  0  0
    3.0790   -4.1750    0.0000 C   0  0  0  0  0  0  0  0  0  0  0  0
    2.3640   -2.9370    0.0000 C   0  0  0  0  0  0  0  0  0  0  0  0
    6.6520   -2.9370    0.0000 C   0  0  0  0  0  0  0  0  0  0  0  0
    5.9370   -4.1750    0.0000 C   0  0  0  0  0  0  0  0  0  0  0  0
    2.3640   -3.7620    0.0000 C   0  0  0  0  0  0  0  0  0  0  0  0
    6.6520   -3.7620    0.0000 C   0  0  0  0  0  0  0  0  0  0  0  0
    5.9370    2.4260    0.0000 C   0  0  0  0  0  0  0  0  0  0  0  0
    5.9370    3.2510    0.0000 C   0  0  0  0  0  0  0  0  0  0  0  0
  1 23  1  0  0  0  0
  2 14  1  0  0  0  0
  2 25  1  0  0  0  0
  3 26  1  0  0  0  0
  4  6  1  0  0  0  0
  4  7  1  0  0  0  0
  4 10  1  0  0  0  0
  5  8  1  0  0  0  0
  5  9  1  0  0  0  0
  5 11  1  0  0  0  0
  6  8  1  0  0  0  0
  7  9  1  0  0  0  0
 10 12  1  0  0  0  0
 10 13  1  0  0  0  0
 11 14  1  0  0  0  0
 12 15  2  0  0  0  0
 12 16  1  0  0  0  0
 13 17  2  0  0  0  0
 13 18  1  0  0  0  0
 15 19  1  0  0  0  0
 16 20  2  0  0  0  0
 17 21  1  0  0  0  0
 18 22  2  0  0  0  0
 19 23  2  0  0  0  0
 20 23  1  0  0  0  0
 21 24  2  0  0  0  0
 22 24  1  0  0  0  0
 25 26  1  0  0  0  0
M  END
>  <DATABASE_ID>
DB00557

>  <DATABASE_NAME>
drugbank

>  <SMILES>
Clc1ccc(cc1)C(N1CCN(CC1)CCOCCO)c1ccccc1

>  <INCHI_IDENTIFIER>
InChI=1S/C21H27ClN2O2/c22-20-8-6-19(7-9-20)21(18-4-2-1-3-5-18)24-12-10-23(11-13-24)14-16-26-17-15-25/h1-9,21,25H,10-17H2

>  <INCHI_KEY>
InChIKey=ZQDWXGKKHFNSQK-UHFFFAOYSA-N

>  <JCHEM_ACCEPTOR_COUNT>
4

>  <JCHEM_AVERAGE_POLARIZABILITY>
41.985325

>  <JCHEM_BIOAVAILABILITY>
1

>  <JCHEM_DONOR_COUNT>
1

>  <JCHEM_EXACT_MASS>
374.17612

>  <JCHEM_FORMAL_CHARGE>
0

>  <JCHEM_FORMULA>
C21H27ClN2O2

>  <JCHEM_GHOSE_FILTER>
1

>  <JCHEM_IUPAC>
2-(2-{4-[(4-chlorophenyl)(phenyl)methyl]piperazin-1-yl}ethoxy)ethan-1-ol

>  <ALOGPS_LOGP>
3.4300001

>  <JCHEM_LOGP>
3.4129696

>  <ALOGPS_LOGS>
-3.6099999

>  <JCHEM_MASS>
374.90399

>  <JCHEM_MDDR_LIKE_RULE>
1

>  <JCHEM_NUMBER_OF_RINGS>
3

>  <JCHEM_PHYSIOLOGICAL_CHARGE>
1

>  <JCHEM_PKA_STRONGEST_ACIDIC>
15.121227

>  <JCHEM_PKA_STRONGEST_BASIC>
7.8176918

>  <JCHEM_POLAR_SURFACE_AREA>
35.939999

>  <JCHEM_REFRACTIVITY>
107.0742

>  <JCHEM_ROTATABLE_BOND_COUNT>
8

>  <JCHEM_RULE_OF_FIVE>
1

>  <ALOGPS_SOLUBILITY>
9.14e-02 g/l

>  <JCHEM_TRADITIONAL_IUPAC>
hydroxyzine

>  <JCHEM_VEBER_RULE>
1

>  <DRUGBANK_ID>
DB00557

>  <DRUG_GROUPS>
approved

>  <GENERIC_NAME>
Hydroxyzine

>  <SYNONYMS>
Hidroxizina; Hydroksyzyny; Hydroxine; Hydroxizine; Hydroxizinum; Hydroxycine; Hydroxyzin; Hydroxyzinum

>  <BRANDS>
Atarax; Hyzine; Masmoran; Rezine; Vistaject-50; Vistaril; Vistazine

>  <SALTS>
Hydroxyzine hydrochloride; Hydroxyzine pamoate

$$$$
Bosentan
 OpenBabel02121510022D

 39 42  0  0  0  0  0  0  0  0999 V2000
    5.9370    1.4210    0.0000 S   0  0  0  0  0  0  0  0  0  0  0  0
    6.3500    0.7060    0.0000 O   0  0  0  0  0  0  0  0  0  0  0  0
    5.5240    2.1350    0.0000 O   0  0  0  0  0  0  0  0  0  0  0  0
    3.7940    0.1830    0.0000 O   0  0  0  0  0  0  0  0  0  0  0  0
    3.7940   -1.4670    0.0000 O   0  0  0  0  0  0  0  0  0  0  0  0
    2.3640    1.0080    0.0000 O   0  0  0  0  0  0  0  0  0  0  0  0
    3.0790   -3.5290    0.0000 O   0  0  0  0  0  0  0  0  0  0  0  0
    5.2220    1.0080    0.0000 N   0  0  0  0  0  0  0  0  0  0  0  0
    5.9370   -0.2290    0.0000 N   0  0  0  0  0  0  0  0  0  0  0  0
    5.2220   -1.4670    0.0000 N   0  0  0  0  0  0  0  0  0  0  0  0
    7.3660   -1.0540    0.0000 N   0  0  0  0  0  0  0  0  0  0  0  0
    6.6520   -2.2920    0.0000 N   0  0  0  0  0  0  0  0  0  0  0  0
    8.7950    3.0710    0.0000 C   0  0  0  0  0  0  0  0  0  0  0  0
    8.0800    2.6580    0.0000 C   0  0  0  0  0  0  0  0  0  0  0  0
    9.5090    3.4830    0.0000 C   0  0  0  0  0  0  0  0  0  0  0  0
    8.3820    3.7850    0.0000 C   0  0  0  0  0  0  0  0  0  0  0  0
    9.2080    2.3560    0.0000 C   0  0  0  0  0  0  0  0  0  0  0  0
    8.0800    1.8330    0.0000 C   0  0  0  0  0  0  0  0  0  0  0  0
    7.3660    3.0710    0.0000 C   0  0  0  0  0  0  0  0  0  0  0  0
    6.6520    1.8330    0.0000 C   0  0  0  0  0  0  0  0  0  0  0  0
    7.3660    1.4210    0.0000 C   0  0  0  0  0  0  0  0  0  0  0  0
    6.6520    2.6580    0.0000 C   0  0  0  0  0  0  0  0  0  0  0  0
    5.2220    0.1830    0.0000 C   0  0  0  0  0  0  0  0  0  0  0  0
    4.5080   -0.2290    0.0000 C   0  0  0  0  0  0  0  0  0  0  0  0
    4.5080   -1.0540    0.0000 C   0  0  0  0  0  0  0  0  0  0  0  0
    5.9370   -1.0540    0.0000 C   0  0  0  0  0  0  0  0  0  0  0  0
    3.0790   -0.2290    0.0000 C   0  0  0  0  0  0  0  0  0  0  0  0
    6.6520   -1.4670    0.0000 C   0  0  0  0  0  0  0  0  0  0  0  0
    3.7940   -2.2920    0.0000 C   0  0  0  0  0  0  0  0  0  0  0  0
    2.3640    0.1830    0.0000 C   0  0  0  0  0  0  0  0  0  0  0  0
    3.0790   -1.0540    0.0000 C   0  0  0  0  0  0  0  0  0  0  0  0
    1.6500   -0.2290    0.0000 C   0  0  0  0  0  0  0  0  0  0  0  0
    3.0790   -2.7040    0.0000 C   0  0  0  0  0  0  0  0  0  0  0  0
    2.3640   -1.4670    0.0000 C   0  0  0  0  0  0  0  0  0  0  0  0
    1.6500   -1.0540    0.0000 C   0  0  0  0  0  0  0  0  0  0  0  0
    8.0800   -1.4670    0.0000 C   0  0  0  0  0  0  0  0  0  0  0  0
    7.3660   -2.7040    0.0000 C   0  0  0  0  0  0  0  0  0  0  0  0
    8.0800   -2.2920    0.0000 C   0  0  0  0  0  0  0  0  0  0  0  0
    1.6500    1.4210    0.0000 C   0  0  0  0  0  0  0  0  0  0  0  0
  1  2  2  0  0  0  0
  1  3  2  0  0  0  0
  1  8  1  0  0  0  0
  1 20  1  0  0  0  0
  4 24  1  0  0  0  0
  4 27  1  0  0  0  0
  5 25  1  0  0  0  0
  5 29  1  0  0  0  0
  6 30  1  0  0  0  0
  6 39  1  0  0  0  0
  7 33  1  0  0  0  0
  8 23  1  0  0  0  0
  9 23  1  0  0  0  0
  9 26  2  0  0  0  0
 10 25  2  0  0  0  0
 10 26  1  0  0  0  0
 11 28  2  0  0  0  0
 11 36  1  0  0  0  0
 12 28  1  0  0  0  0
 12 37  2  0  0  0  0
 13 14  1  0  0  0  0
 13 15  1  0  0  0  0
 13 16  1  0  0  0  0
 13 17  1  0  0  0  0
 14 18  2  0  0  0  0
 14 19  1  0  0  0  0
 18 21  1  0  0  0  0
 19 22  2  0  0  0  0
 20 21  2  0  0  0  0
 20 22  1  0  0  0  0
 23 24  2  0  0  0  0
 24 25  1  0  0  0  0
 26 28  1  0  0  0  0
 27 30  2  0  0  0  0
 27 31  1  0  0  0  0
 29 33  1  0  0  0  0
 30 32  1  0  0  0  0
 31 34  2  0  0  0  0
 32 35  2  0  0  0  0
 34 35  1  0  0  0  0
 36 38  2  0  0  0  0
 37 38  1  0  0  0  0
M  END
>  <DATABASE_ID>
DB00559

>  <DATABASE_NAME>
drugbank

>  <SMILES>
S(=O)(=O)(Nc1nc(nc(OCCO)c1Oc1ccccc1OC)-c1ncccn1)c1ccc(cc1)C(C)(C)C

>  <INCHI_IDENTIFIER>
InChI=1S/C27H29N5O6S/c1-27(2,3)18-10-12-19(13-11-18)39(34,35)32-23-22(38-21-9-6-5-8-20(21)36-4)26(37-17-16-33)31-25(30-23)24-28-14-7-15-29-24/h5-15,33H,16-17H2,1-4H3,(H,30,31,32)

>  <INCHI_KEY>
InChIKey=GJPICJJJRGTNOD-UHFFFAOYSA-N

>  <JCHEM_ACCEPTOR_COUNT>
9

>  <JCHEM_AVERAGE_POLARIZABILITY>
57.885323

>  <JCHEM_BIOAVAILABILITY>
1

>  <JCHEM_DONOR_COUNT>
2

>  <JCHEM_EXACT_MASS>
551.18384

>  <JCHEM_FORMAL_CHARGE>
0

>  <JCHEM_FORMULA>
C27H29N5O6S

>  <JCHEM_GHOSE_FILTER>
0

>  <JCHEM_IUPAC>
4-tert-butyl-N-[6-(2-hydroxyethoxy)-5-(2-methoxyphenoxy)-2-(pyrimidin-2-yl)pyrimidin-4-yl]benzene-1-sulfonamide

>  <ALOGPS_LOGP>
4.1799998

>  <JCHEM_LOGP>
4.9417472

>  <ALOGPS_LOGS>
-4.79

>  <JCHEM_MASS>
551.61401

>  <JCHEM_MDDR_LIKE_RULE>
1

>  <JCHEM_NUMBER_OF_RINGS>
4

>  <JCHEM_PHYSIOLOGICAL_CHARGE>
-1

>  <JCHEM_PKA>
15.098839

>  <JCHEM_PKA_STRONGEST_ACIDIC>
5.7959671

>  <JCHEM_PKA_STRONGEST_BASIC>
-0.42784342

>  <JCHEM_POLAR_SURFACE_AREA>
145.64999

>  <JCHEM_REFRACTIVITY>
166.6572

>  <JCHEM_ROTATABLE_BOND_COUNT>
10

>  <JCHEM_RULE_OF_FIVE>
0

>  <ALOGPS_SOLUBILITY>
9.04e-03 g/l

>  <JCHEM_TRADITIONAL_IUPAC>
bosentan

>  <JCHEM_VEBER_RULE>
0

>  <DRUGBANK_ID>
DB00559

>  <DRUG_GROUPS>
approved; investigational

>  <GENERIC_NAME>
Bosentan

>  <BRANDS>
Tracleer

$$$$
Methotrexate
 OpenBabel02121510022D

 33 35  0  0  1  0  0  0  0  0999 V2000
   12.8600   -0.2290    0.0000 O   0  0  0  0  0  0  0  0  0  0  0  0
    9.9990   -1.0430    0.0000 O   0  0  0  0  0  0  0  0  0  0  0  0
   12.1500    1.0120    0.0000 O   0  0  0  0  0  0  0  0  0  0  0  0
   12.8500   -2.7040    0.0000 O   0  0  0  0  0  0  0  0  0  0  0  0
   11.4210   -2.6980    0.0000 O   0  0  0  0  0  0  0  0  0  0  0  0
    7.1500    1.4430    0.0000 N   0  0  0  0  0  0  0  0  0  0  0  0
   10.7180    0.1920    0.0000 N   0  0  0  0  0  0  0  0  0  0  0  0
    4.9740    1.0250    0.0000 N   0  0  0  0  0  0  0  0  0  0  0  0
    4.9740    2.7320    0.0000 N   0  0  0  0  0  0  0  0  0  0  0  0
    3.5220    2.7040    0.0000 N   0  0  0  0  0  0  0  0  0  0  0  0
    2.8080    1.4660    0.0000 N   0  0  0  0  0  0  0  0  0  0  0  0
    3.5220    0.2290    0.0000 N   0  0  0  0  0  0  0  0  0  0  0  0
    2.0930    2.7040    0.0000 N   0  0  0  0  0  0  0  0  0  0  0  0
   11.4310   -0.2230    0.0000 C   0  0  1  0  0  0  0  0  0  0  0  0
   11.4280   -1.0480    0.0000 C   0  0  0  0  0  0  0  0  0  0  0  0
    7.8630    1.0280    0.0000 C   0  0  0  0  0  0  0  0  0  0  0  0
   12.1410   -1.4630    0.0000 C   0  0  0  0  0  0  0  0  0  0  0  0
    6.4340    1.0340    0.0000 C   0  0  0  0  0  0  0  0  0  0  0  0
    9.2890    0.1980    0.0000 C   0  0  0  0  0  0  0  0  0  0  0  0
   10.0020   -0.2180    0.0000 C   0  0  0  0  0  0  0  0  0  0  0  0
    7.8600    0.2030    0.0000 C   0  0  0  0  0  0  0  0  0  0  0  0
    8.5790    1.4380    0.0000 C   0  0  0  0  0  0  0  0  0  0  0  0
   12.1470    0.1870    0.0000 C   0  0  0  0  0  0  0  0  0  0  0  0
    8.5730   -0.2120    0.0000 C   0  0  0  0  0  0  0  0  0  0  0  0
    9.2920    1.0230    0.0000 C   0  0  0  0  0  0  0  0  0  0  0  0
    5.7210    1.4490    0.0000 C   0  0  0  0  0  0  0  0  0  0  0  0
    7.1540    2.2680    0.0000 C   0  0  0  0  0  0  0  0  0  0  0  0
   12.1370   -2.2880    0.0000 C   0  0  0  0  0  0  0  0  0  0  0  0
    5.7210    2.3080    0.0000 C   0  0  0  0  0  0  0  0  0  0  0  0
    4.2360    1.4660    0.0000 C   0  0  0  0  0  0  0  0  0  0  0  0
    4.2360    2.2910    0.0000 C   0  0  0  0  0  0  0  0  0  0  0  0
    3.5220    1.0540    0.0000 C   0  0  0  0  0  0  0  0  0  0  0  0
    2.8080    2.2910    0.0000 C   0  0  0  0  0  0  0  0  0  0  0  0
  1 23  1  0  0  0  0
  2 20  2  0  0  0  0
  3 23  2  0  0  0  0
  4 28  1  0  0  0  0
  5 28  2  0  0  0  0
  6 16  1  0  0  0  0
  6 18  1  0  0  0  0
  6 27  1  0  0  0  0
  7 20  1  0  0  0  0
  8 26  2  0  0  0  0
  8 30  1  0  0  0  0
  9 29  2  0  0  0  0
  9 31  1  0  0  0  0
 10 31  1  0  0  0  0
 10 33  2  0  0  0  0
 11 32  2  0  0  0  0
 11 33  1  0  0  0  0
 12 32  1  0  0  0  0
 13 33  1  0  0  0  0
 14  7  1  6  0  0  0
 14 15  1  0  0  0  0
 14 23  1  0  0  0  0
 15 17  1  0  0  0  0
 16 21  2  0  0  0  0
 16 22  1  0  0  0  0
 17 28  1  0  0  0  0
 18 26  1  0  0  0  0
 19 20  1  0  0  0  0
 19 24  2  0  0  0  0
 19 25  1  0  0  0  0
 21 24  1  0  0  0  0
 22 25  2  0  0  0  0
 26 29  1  0  0  0  0
 30 31  2  0  0  0  0
 30 32  1  0  0  0  0
M  END
>  <DATABASE_ID>
DB00563

>  <DATABASE_NAME>
drugbank

>  <SMILES>
OC(=O)CC[C@H](NC(=O)c1ccc(N(Cc2nc3c(nc(nc3N)N)nc2)C)cc1)C(O)=O

>  <INCHI_IDENTIFIER>
InChI=1S/C20H22N8O5/c1-28(9-11-8-23-17-15(24-11)16(21)26-20(22)27-17)12-4-2-10(3-5-12)18(31)25-13(19(32)33)6-7-14(29)30/h2-5,8,13H,6-7,9H2,1H3,(H,25,31)(H,29,30)(H,32,33)(H4,21,22,23,26,27)/t13-/m0/s1

>  <INCHI_KEY>
InChIKey=FBOZXECLQNJBKD-ZDUSSCGKSA-N

>  <JCHEM_ACCEPTOR_COUNT>
12

>  <JCHEM_AVERAGE_POLARIZABILITY>
44.544659

>  <JCHEM_BIOAVAILABILITY>
0

>  <JCHEM_DONOR_COUNT>
5

>  <JCHEM_EXACT_MASS>
454.17133

>  <JCHEM_FORMAL_CHARGE>
0

>  <JCHEM_FORMULA>
C20H22N8O5

>  <JCHEM_GHOSE_FILTER>
1

>  <JCHEM_IUPAC>
(2S)-2-[(4-{[(2,4-diaminopteridin-6-yl)methyl](methyl)amino}phenyl)formamido]pentanedioic acid

>  <ALOGPS_LOGP>
-0.91000003

>  <JCHEM_LOGP>
-0.50455725

>  <ALOGPS_LOGS>
-3.4200001

>  <JCHEM_MASS>
454.4393

>  <JCHEM_MDDR_LIKE_RULE>
1

>  <JCHEM_NUMBER_OF_RINGS>
3

>  <JCHEM_PHYSIOLOGICAL_CHARGE>
-2

>  <JCHEM_PKA>
4.1420202

>  <JCHEM_PKA_STRONGEST_ACIDIC>
3.4097753

>  <JCHEM_PKA_STRONGEST_BASIC>
2.8060639

>  <JCHEM_POLAR_SURFACE_AREA>
210.53999

>  <JCHEM_REFRACTIVITY>
119.2108

>  <JCHEM_ROTATABLE_BOND_COUNT>
9

>  <JCHEM_RULE_OF_FIVE>
0

>  <ALOGPS_SOLUBILITY>
1.71e-01 g/l

>  <JCHEM_TRADITIONAL_IUPAC>
methotrexate

>  <JCHEM_VEBER_RULE>
0

>  <DRUGBANK_ID>
DB00563

>  <DRUG_GROUPS>
approved

>  <GENERIC_NAME>
Methotrexate

>  <SYNONYMS>
4-amino-10-methylfolic acid; Amethopterin; Methotrexat; Méthotrexate; Methotrexatum; Metotrexato; MTX

>  <BRANDS>
Abitrexate; Alltrex; Artrait; Atrexel; Bendatrexat; Carditrex; Dermotrex; Ebetrex; Emtexate; Ledertrexate; Maxtrex; Meisusheng; Mexate; Otrexup; Rheumatrex; Trexall; Trexan; Zexate

>  <SALTS>
Methotrexate Sodium

$$$$
Carbamazepine
 OpenBabel02121510022D

 18 20  0  0  0  0  0  0  0  0999 V2000
    4.5540   -1.2160    0.0000 O   0  0  0  0  0  0  0  0  0  0  0  0
    3.8680   -0.0280    0.0000 N   0  0  0  0  0  0  0  0  0  0  0  0
    3.1820   -1.2160    0.0000 N   0  0  0  0  0  0  0  0  0  0  0  0
    4.5810    0.3160    0.0000 C   0  0  0  0  0  0  0  0  0  0  0  0
    3.1540    0.3160    0.0000 C   0  0  0  0  0  0  0  0  0  0  0  0
    4.7580    1.0880    0.0000 C   0  0  0  0  0  0  0  0  0  0  0  0
    2.9780    1.0880    0.0000 C   0  0  0  0  0  0  0  0  0  0  0  0
    4.2640    1.7070    0.0000 C   0  0  0  0  0  0  0  0  0  0  0  0
    3.4720    1.7070    0.0000 C   0  0  0  0  0  0  0  0  0  0  0  0
    5.1770   -0.2550    0.0000 C   0  0  0  0  0  0  0  0  0  0  0  0
    2.5580   -0.2550    0.0000 C   0  0  0  0  0  0  0  0  0  0  0  0
    5.5420    1.3430    0.0000 C   0  0  0  0  0  0  0  0  0  0  0  0
    2.1930    1.3430    0.0000 C   0  0  0  0  0  0  0  0  0  0  0  0
    3.8680   -0.8200    0.0000 C   0  0  0  0  0  0  0  0  0  0  0  0
    5.9680   -0.0180    0.0000 C   0  0  0  0  0  0  0  0  0  0  0  0
    1.7680   -0.0180    0.0000 C   0  0  0  0  0  0  0  0  0  0  0  0
    6.1510    0.7870    0.0000 C   0  0  0  0  0  0  0  0  0  0  0  0
    1.5840    0.7870    0.0000 C   0  0  0  0  0  0  0  0  0  0  0  0
  1 14  2  0  0  0  0
  2  4  1  0  0  0  0
  2  5  1  0  0  0  0
  2 14  1  0  0  0  0
  3 14  1  0  0  0  0
  4  6  2  0  0  0  0
  4 10  1  0  0  0  0
  5  7  2  0  0  0  0
  5 11  1  0  0  0  0
  6  8  1  0  0  0  0
  6 12  1  0  0  0  0
  7  9  1  0  0  0  0
  7 13  1  0  0  0  0
  8  9  2  0  0  0  0
 10 15  2  0  0  0  0
 11 16  2  0  0  0  0
 12 17  2  0  0  0  0
 13 18  2  0  0  0  0
 15 17  1  0  0  0  0
 16 18  1  0  0  0  0
M  END
>  <DATABASE_ID>
DB00564

>  <DATABASE_NAME>
drugbank

>  <SMILES>
O=C(N)N1c2c(C=Cc3c1cccc3)cccc2

>  <INCHI_IDENTIFIER>
InChI=1S/C15H12N2O/c16-15(18)17-13-7-3-1-5-11(13)9-10-12-6-2-4-8-14(12)17/h1-10H,(H2,16,18)

>  <INCHI_KEY>
InChIKey=FFGPTBGBLSHEPO-UHFFFAOYSA-N

>  <JCHEM_ACCEPTOR_COUNT>
1

>  <JCHEM_AVERAGE_POLARIZABILITY>
25.002491

>  <JCHEM_BIOAVAILABILITY>
1

>  <JCHEM_DONOR_COUNT>
1

>  <JCHEM_EXACT_MASS>
236.09496

>  <JCHEM_FORMAL_CHARGE>
0

>  <JCHEM_FORMULA>
C15H12N2O

>  <JCHEM_GHOSE_FILTER>
1

>  <JCHEM_IUPAC>
2-azatricyclo[9.4.0.0^{3,8}]pentadeca-1(11),3(8),4,6,9,12,14-heptaene-2-carboxamide

>  <ALOGPS_LOGP>
2.0999999

>  <JCHEM_LOGP>
2.7660303

>  <ALOGPS_LOGS>
-3.1900001

>  <JCHEM_MASS>
236.2686

>  <JCHEM_MDDR_LIKE_RULE>
0

>  <JCHEM_NUMBER_OF_RINGS>
3

>  <JCHEM_PHYSIOLOGICAL_CHARGE>
0

>  <JCHEM_PKA_STRONGEST_ACIDIC>
15.95836

>  <JCHEM_PKA_STRONGEST_BASIC>
-3.7540181

>  <JCHEM_POLAR_SURFACE_AREA>
46.330002

>  <JCHEM_REFRACTIVITY>
71.888

>  <JCHEM_ROTATABLE_BOND_COUNT>
0

>  <JCHEM_RULE_OF_FIVE>
1

>  <ALOGPS_SOLUBILITY>
1.52e-01 g/l

>  <JCHEM_TRADITIONAL_IUPAC>
tegretol

>  <JCHEM_VEBER_RULE>
0

>  <DRUGBANK_ID>
DB00564

>  <DRUG_GROUPS>
approved; investigational

>  <GENERIC_NAME>
Carbamazepine

>  <SYNONYMS>
5-Carbamoyl-5H-dibenz(b,f)azepine; Carbamazepin; Carbamazepina; Carbamazépine; Carbamazepinum; CBZ

>  <BRANDS>
Actebral; Anleptic; Biston; Carbamat; Carbatrol; Epitol; Equetro; Neurotop; TEGretol; Tégrétol; TEGretol Chewtabs; TEGretol-CR; TEGretol-XR; Teril; Timonil; Versitol; Versizur

$$$$
Succimer
 OpenBabel02121510022D

 10  9  0  0  1  0  0  0  0  0999 V2000
    3.5220   -1.0310    0.0000 S   0  0  0  0  0  0  0  0  0  0  0  0
    4.2360    1.0310    0.0000 S   0  0  0  0  0  0  0  0  0  0  0  0
    2.0930   -0.2060    0.0000 O   0  0  0  0  0  0  0  0  0  0  0  0
    5.6650    0.2060    0.0000 O   0  0  0  0  0  0  0  0  0  0  0  0
    2.8070    1.0310    0.0000 O   0  0  0  0  0  0  0  0  0  0  0  0
    4.9500   -1.0310    0.0000 O   0  0  0  0  0  0  0  0  0  0  0  0
    3.5220   -0.2060    0.0000 C   0  0  3  0  0  0  0  0  0  0  0  0
    4.2360    0.2060    0.0000 C   0  0  3  0  0  0  0  0  0  0  0  0
    2.8070    0.2060    0.0000 C   0  0  0  0  0  0  0  0  0  0  0  0
    4.9500   -0.2060    0.0000 C   0  0  0  0  0  0  0  0  0  0  0  0
  1  7  1  0  0  0  0
  2  8  1  0  0  0  0
  3  9  1  0  0  0  0
  4 10  1  0  0  0  0
  5  9  2  0  0  0  0
  6 10  2  0  0  0  0
  7  8  1  0  0  0  0
  7  9  1  0  0  0  0
  8 10  1  0  0  0  0
M  END
>  <DATABASE_ID>
DB00566

>  <DATABASE_NAME>
drugbank

>  <SMILES>
SC(C(S)C(O)=O)C(O)=O

>  <INCHI_IDENTIFIER>
InChI=1S/C4H6O4S2/c5-3(6)1(9)2(10)4(7)8/h1-2,9-10H,(H,5,6)(H,7,8)

>  <INCHI_KEY>
InChIKey=ACTRVOBWPAIOHC-UHFFFAOYSA-N

>  <JCHEM_ACCEPTOR_COUNT>
4

>  <JCHEM_AVERAGE_POLARIZABILITY>
15.467663

>  <JCHEM_BIOAVAILABILITY>
1

>  <JCHEM_DONOR_COUNT>
4

>  <JCHEM_EXACT_MASS>
181.97075

>  <JCHEM_FORMAL_CHARGE>
0

>  <JCHEM_FORMULA>
C4H6O4S2

>  <JCHEM_GHOSE_FILTER>
0

>  <JCHEM_IUPAC>
2,3-disulfanylbutanedioic acid

>  <ALOGPS_LOGP>
0.56

>  <JCHEM_LOGP>
0.25882706

>  <ALOGPS_LOGS>
-1.87

>  <JCHEM_MASS>
182.218

>  <JCHEM_MDDR_LIKE_RULE>
0

>  <JCHEM_NUMBER_OF_RINGS>
0

>  <JCHEM_PHYSIOLOGICAL_CHARGE>
-2

>  <JCHEM_PKA>
5.4487462

>  <JCHEM_PKA_STRONGEST_ACIDIC>
3.3712347

>  <JCHEM_POLAR_SURFACE_AREA>
74.599998

>  <JCHEM_REFRACTIVITY>
38.4674

>  <JCHEM_ROTATABLE_BOND_COUNT>
3

>  <JCHEM_RULE_OF_FIVE>
1

>  <ALOGPS_SOLUBILITY>
2.43e+00 g/l

>  <JCHEM_TRADITIONAL_IUPAC>
succimer

>  <JCHEM_VEBER_RULE>
0

>  <DRUGBANK_ID>
DB00566

>  <DRUG_GROUPS>
approved

>  <GENERIC_NAME>
Succimer

>  <BRANDS>
CHEMET

$$$$
Cephalexin
 OpenBabel02121510022D

 25 27  0  0  1  0  0  0  0  0999 V2000
    3.0790   -0.8460    0.0000 S   0  0  0  0  0  0  0  0  0  0  0  0
    5.2070    0.9800    0.0000 O   0  0  0  0  0  0  0  0  0  0  0  0
    6.2200   -0.0130    0.0000 O   0  0  0  0  0  0  0  0  0  0  0  0
    2.3640    2.0420    0.0000 O   0  0  0  0  0  0  0  0  0  0  0  0
    3.7930    2.0420    0.0000 O   0  0  0  0  0  0  0  0  0  0  0  0
    3.7930    0.3920    0.0000 N   0  0  0  0  0  0  0  0  0  0  0  0
    5.2070   -1.0210    0.0000 N   0  0  0  0  0  0  0  0  0  0  0  0
    6.3720   -2.1910    0.0000 N   0  0  0  0  0  0  0  0  0  0  0  0
    3.7930   -0.4340    0.0000 C   0  0  1  0  0  0  0  0  0  0  0  0
    4.6250   -0.4370    0.0000 C   0  0  1  0  0  0  0  0  0  0  0  0
    4.6250    0.3950    0.0000 C   0  0  0  0  0  0  0  0  0  0  0  0
    3.0790    0.8040    0.0000 C   0  0  0  0  0  0  0  0  0  0  0  0
    2.3640   -0.4340    0.0000 C   0  0  0  0  0  0  0  0  0  0  0  0
    2.3640    0.3920    0.0000 C   0  0  0  0  0  0  0  0  0  0  0  0
    6.0050   -0.8100    0.0000 C   0  0  0  0  0  0  0  0  0  0  0  0
    1.6500    0.8040    0.0000 C   0  0  0  0  0  0  0  0  0  0  0  0
    3.0790    1.6290    0.0000 C   0  0  0  0  0  0  0  0  0  0  0  0
    6.5870   -1.3940    0.0000 C   0  0  1  0  0  0  0  0  0  0  0  0
    7.3840   -1.1820    0.0000 C   0  0  0  0  0  0  0  0  0  0  0  0
    7.5990   -0.3860    0.0000 C   0  0  0  0  0  0  0  0  0  0  0  0
    7.9660   -1.7670    0.0000 C   0  0  0  0  0  0  0  0  0  0  0  0
    8.3970   -0.1740    0.0000 C   0  0  0  0  0  0  0  0  0  0  0  0
    8.7640   -1.5550    0.0000 C   0  0  0  0  0  0  0  0  0  0  0  0
    8.9790   -0.7580    0.0000 C   0  0  0  0  0  0  0  0  0  0  0  0
    3.9630   -1.0710    0.0000 H   0  0  0  0  0  0  0  0  0  0  0  0
  1  9  1  0  0  0  0
  1 13  1  0  0  0  0
  2 11  2  0  0  0  0
  3 15  2  0  0  0  0
  4 17  1  0  0  0  0
  5 17  2  0  0  0  0
  6  9  1  0  0  0  0
  6 11  1  0  0  0  0
  6 12  1  0  0  0  0
  7 15  1  0  0  0  0
  9 10  1  0  0  0  0
  9 25  1  6  0  0  0
 10  7  1  1  0  0  0
 10 11  1  0  0  0  0
 12 14  2  0  0  0  0
 12 17  1  0  0  0  0
 13 14  1  0  0  0  0
 14 16  1  0  0  0  0
 18 15  1  1  0  0  0
 18  8  1  0  0  0  0
 18 19  1  0  0  0  0
 19 20  2  0  0  0  0
 19 21  1  0  0  0  0
 20 22  1  0  0  0  0
 21 23  2  0  0  0  0
 22 24  2  0  0  0  0
 23 24  1  0  0  0  0
M  END
>  <DATABASE_ID>
DB00567

>  <DATABASE_NAME>
drugbank

>  <SMILES>
S1[C@H]2N(C(C(O)=O)=C(C1)C)C(=O)[C@H]2NC(=O)[C@H](N)c1ccccc1

>  <INCHI_IDENTIFIER>
InChI=1S/C16H17N3O4S/c1-8-7-24-15-11(14(21)19(15)12(8)16(22)23)18-13(20)10(17)9-5-3-2-4-6-9/h2-6,10-11,15H,7,17H2,1H3,(H,18,20)(H,22,23)/t10-,11-,15-/m1/s1

>  <INCHI_KEY>
InChIKey=ZAIPMKNFIOOWCQ-UEKVPHQBSA-N

>  <JCHEM_ACCEPTOR_COUNT>
5

>  <JCHEM_AVERAGE_POLARIZABILITY>
32.517372

>  <JCHEM_BIOAVAILABILITY>
1

>  <JCHEM_DONOR_COUNT>
3

>  <JCHEM_EXACT_MASS>
347.09396

>  <JCHEM_FORMAL_CHARGE>
0

>  <JCHEM_FORMULA>
C16H17N3O4S

>  <JCHEM_GHOSE_FILTER>
0

>  <JCHEM_IUPAC>
(6R,7R)-7-[(2R)-2-amino-2-phenylacetamido]-3-methyl-8-oxo-5-thia-1-azabicyclo[4.2.0]oct-2-ene-2-carboxylic acid

>  <ALOGPS_LOGP>
0.55000001

>  <JCHEM_LOGP>
-2.145041

>  <ALOGPS_LOGS>
-3.0699999

>  <JCHEM_MASS>
347.38901

>  <JCHEM_MDDR_LIKE_RULE>
0

>  <JCHEM_NUMBER_OF_RINGS>
3

>  <JCHEM_PHYSIOLOGICAL_CHARGE>
0

>  <JCHEM_PKA>
11.912251

>  <JCHEM_PKA_STRONGEST_ACIDIC>
3.4520106

>  <JCHEM_PKA_STRONGEST_BASIC>
7.438374

>  <JCHEM_POLAR_SURFACE_AREA>
112.73

>  <JCHEM_REFRACTIVITY>
88.973602

>  <JCHEM_ROTATABLE_BOND_COUNT>
4

>  <JCHEM_RULE_OF_FIVE>
1

>  <ALOGPS_SOLUBILITY>
2.97e-01 g/l

>  <JCHEM_TRADITIONAL_IUPAC>
cephalexin

>  <JCHEM_VEBER_RULE>
0

>  <DRUGBANK_ID>
DB00567

>  <DRUG_GROUPS>
approved

>  <GENERIC_NAME>
Cephalexin

>  <SYNONYMS>
Cefalexin; Cefalexina; Céfalexine; Cefalexinum; Céphalexine; CEX

>  <BRANDS>
Alcephin; Alexin; Alsporin; Cefadin; Cefalin; Ceforal; Cefovit; Celexin; Cephin; Ceporexin; Felexin; Ibilex; Keflex; Keforal; L-Keflex; Larixin; Lonflex; Madlexin; Nufex; Oriphex; Ospexin; Palitrex; Pyassan; Sanaxin; Sencephalin; Sepexin; Servispor; Sialexin; Sporicef; Sporidex; Syncl; Tepaxin; Uphalexin; Voxxim; Winlex

>  <SALTS>
Cefalexin Sodium

$$$$
Propranolol
 OpenBabel02121510022D

 19 20  0  0  1  0  0  0  0  0999 V2000
    4.5080    0.6040    0.0000 O   0  0  0  0  0  0  0  0  0  0  0  0
    4.5080   -1.0460    0.0000 O   0  0  0  0  0  0  0  0  0  0  0  0
    3.0790   -1.8710    0.0000 N   0  0  0  0  0  0  0  0  0  0  0  0
    3.7940   -0.6330    0.0000 C   0  0  3  0  0  0  0  0  0  0  0  0
    3.0790   -1.0460    0.0000 C   0  0  0  0  0  0  0  0  0  0  0  0
    2.3640   -2.2830    0.0000 C   0  0  0  0  0  0  0  0  0  0  0  0
    3.7940    0.1920    0.0000 C   0  0  0  0  0  0  0  0  0  0  0  0
    1.6500   -1.8710    0.0000 C   0  0  0  0  0  0  0  0  0  0  0  0
    2.3640   -3.1080    0.0000 C   0  0  0  0  0  0  0  0  0  0  0  0
    4.5080    1.4300    0.0000 C   0  0  0  0  0  0  0  0  0  0  0  0
    5.2220    1.8420    0.0000 C   0  0  0  0  0  0  0  0  0  0  0  0
    5.2220    2.6670    0.0000 C   0  0  0  0  0  0  0  0  0  0  0  0
    3.7940    1.8420    0.0000 C   0  0  0  0  0  0  0  0  0  0  0  0
    5.9600    1.4010    0.0000 C   0  0  0  0  0  0  0  0  0  0  0  0
    4.5080    3.0800    0.0000 C   0  0  0  0  0  0  0  0  0  0  0  0
    3.7940    2.6670    0.0000 C   0  0  0  0  0  0  0  0  0  0  0  0
    5.9600    3.1080    0.0000 C   0  0  0  0  0  0  0  0  0  0  0  0
    6.7080    1.8250    0.0000 C   0  0  0  0  0  0  0  0  0  0  0  0
    6.7080    2.6840    0.0000 C   0  0  0  0  0  0  0  0  0  0  0  0
  1  7  1  0  0  0  0
  1 10  1  0  0  0  0
  2  4  1  0  0  0  0
  3  5  1  0  0  0  0
  3  6  1  0  0  0  0
  4  5  1  0  0  0  0
  4  7  1  0  0  0  0
  6  8  1  0  0  0  0
  6  9  1  0  0  0  0
 10 11  2  0  0  0  0
 10 13  1  0  0  0  0
 11 12  1  0  0  0  0
 11 14  1  0  0  0  0
 12 15  2  0  0  0  0
 12 17  1  0  0  0  0
 13 16  2  0  0  0  0
 14 18  2  0  0  0  0
 15 16  1  0  0  0  0
 17 19  2  0  0  0  0
 18 19  1  0  0  0  0
M  END
>  <DATABASE_ID>
DB00571

>  <DATABASE_NAME>
drugbank

>  <SMILES>
O(CC(O)CNC(C)C)c1c2c(ccc1)cccc2

>  <INCHI_IDENTIFIER>
InChI=1S/C16H21NO2/c1-12(2)17-10-14(18)11-19-16-9-5-7-13-6-3-4-8-15(13)16/h3-9,12,14,17-18H,10-11H2,1-2H3

>  <INCHI_KEY>
InChIKey=AQHHHDLHHXJYJD-UHFFFAOYSA-N

>  <JCHEM_ACCEPTOR_COUNT>
3

>  <JCHEM_AVERAGE_POLARIZABILITY>
29.983768

>  <JCHEM_BIOAVAILABILITY>
1

>  <JCHEM_DONOR_COUNT>
2

>  <JCHEM_EXACT_MASS>
259.15723

>  <JCHEM_FORMAL_CHARGE>
0

>  <JCHEM_FORMULA>
C16H21NO2

>  <JCHEM_GHOSE_FILTER>
1

>  <JCHEM_IUPAC>
[2-hydroxy-3-(naphthalen-1-yloxy)propyl](propan-2-yl)amine

>  <ALOGPS_LOGP>
3.03

>  <JCHEM_LOGP>
2.5836959

>  <ALOGPS_LOGS>
-3.51

>  <JCHEM_MASS>
259.34341

>  <JCHEM_MDDR_LIKE_RULE>
0

>  <JCHEM_NUMBER_OF_RINGS>
2

>  <JCHEM_PHYSIOLOGICAL_CHARGE>
1

>  <JCHEM_PKA_STRONGEST_ACIDIC>
14.08793

>  <JCHEM_PKA_STRONGEST_BASIC>
9.6661663

>  <JCHEM_POLAR_SURFACE_AREA>
41.490002

>  <JCHEM_REFRACTIVITY>
76.825699

>  <JCHEM_ROTATABLE_BOND_COUNT>
6

>  <JCHEM_RULE_OF_FIVE>
1

>  <ALOGPS_SOLUBILITY>
7.94e-02 g/l

>  <JCHEM_TRADITIONAL_IUPAC>
propranolol

>  <JCHEM_VEBER_RULE>
0

>  <DRUGBANK_ID>
DB00571

>  <DRUG_GROUPS>
approved; investigational

>  <GENERIC_NAME>
Propranolol

>  <SYNONYMS>
1-((1-Methylethyl)amino)-3-(1-naphthalenyloxy)-2-propanol; 1-(isopropylamino)-3-(1-naphthyloxy)propan-2-ol; Propanalol; Propanolol; β-Propranolol

>  <BRANDS>
Angilol; Bedranol SR; Cardinol; Ciplar; Deralin; Dociton; Duranol; HEMANGEOL; Inderal; Inderal LA; Indobloc; INNOPRAN; Innopran XL; Prophylux; Sumial

>  <SALTS>
Propranolol Hydrochloride

$$$$
Atropine
 OpenBabel02121510022D

 21 23  0  0  1  0  0  0  0  0999 V2000
   -0.7140    0.4120    0.0000 O   0  0  0  0  0  0  0  0  0  0  0  0
    0.0000    0.0000    0.0000 C   0  0  0  0  0  0  0  0  0  0  0  0
    0.7140    0.4120    0.0000 C   0  0  3  0  0  0  0  0  0  0  0  0
    0.0000   -0.8250    0.0000 O   0  0  0  0  0  0  0  0  0  0  0  0
    0.7140    1.2380    0.0000 C   0  0  0  0  0  0  0  0  0  0  0  0
    1.4290    1.6500    0.0000 O   0  0  0  0  0  0  0  0  0  0  0  0
    1.4290    0.0000    0.0000 C   0  0  0  0  0  0  0  0  0  0  0  0
    1.4290   -0.8250    0.0000 C   0  0  0  0  0  0  0  0  0  0  0  0
    2.1430    0.4120    0.0000 C   0  0  0  0  0  0  0  0  0  0  0  0
    2.8580    0.0000    0.0000 C   0  0  0  0  0  0  0  0  0  0  0  0
    2.8580   -0.8250    0.0000 C   0  0  0  0  0  0  0  0  0  0  0  0
    2.1430   -1.2380    0.0000 C   0  0  0  0  0  0  0  0  0  0  0  0
   -2.0740   -1.3400    0.0000 C   0  0  2  0  0  0  0  0  0  0  0  0
   -1.4290   -0.8250    0.0000 C   0  0  0  0  0  0  0  0  0  0  0  0
   -2.8780   -1.1560    0.0000 C   0  0  0  0  0  0  0  0  0  0  0  0
   -3.2360   -0.4130    0.0000 C   0  0  0  0  0  0  0  0  0  0  0  0
   -2.8780    0.3310    0.0000 C   0  0  2  0  0  0  0  0  0  0  0  0
   -2.0740    0.5140    0.0000 C   0  0  0  0  0  0  0  0  0  0  0  0
   -1.4290    0.0000    0.0000 C   0  0  3  0  0  0  0  0  0  0  0  0
   -2.7350   -0.6290    0.0000 N   0  0  0  0  0  0  0  0  0  0  0  0
   -2.0210   -0.2170    0.0000 C   0  0  0  0  0  0  0  0  0  0  0  0
  1  2  1  0  0  0  0
  1 19  1  0  0  0  0
  2  3  1  0  0  0  0
  2  4  2  0  0  0  0
  3  5  1  0  0  0  0
  3  7  1  0  0  0  0
  5  6  1  0  0  0  0
  7  8  2  0  0  0  0
  7  9  1  0  0  0  0
  8 12  1  0  0  0  0
  9 10  2  0  0  0  0
 10 11  1  0  0  0  0
 11 12  2  0  0  0  0
 13 14  1  6  0  0  0
 13 15  1  0  0  0  0
 13 20  1  0  0  0  0
 14 19  1  0  0  0  0
 15 16  1  0  0  0  0
 17 16  1  6  0  0  0
 17 18  1  0  0  0  0
 17 20  1  0  0  0  0
 18 19  1  0  0  0  0
 20 21  1  0  0  0  0
M  END
>  <DATABASE_ID>
DB00572

>  <DATABASE_NAME>
drugbank

>  <SMILES>
O(C(=O)C(CO)c1ccccc1)C1C[C@@H]2N([C@H](C1)CC2)C

>  <INCHI_IDENTIFIER>
InChI=1S/C17H23NO3/c1-18-13-7-8-14(18)10-15(9-13)21-17(20)16(11-19)12-5-3-2-4-6-12/h2-6,13-16,19H,7-11H2,1H3/t13-,14+,15+,16?

>  <INCHI_KEY>
InChIKey=RKUNBYITZUJHSG-SPUOUPEWSA-N

>  <JCHEM_ACCEPTOR_COUNT>
3

>  <JCHEM_AVERAGE_POLARIZABILITY>
31.278553

>  <JCHEM_BIOAVAILABILITY>
1

>  <JCHEM_DONOR_COUNT>
1

>  <JCHEM_EXACT_MASS>
289.16779

>  <JCHEM_FORMAL_CHARGE>
0

>  <JCHEM_FORMULA>
C17H23NO3

>  <JCHEM_GHOSE_FILTER>
1

>  <JCHEM_IUPAC>
(1R,3S,5S)-8-methyl-8-azabicyclo[3.2.1]octan-3-yl 3-hydroxy-2-phenylpropanoate

>  <ALOGPS_LOGP>
2.1900001

>  <JCHEM_LOGP>
1.571241

>  <ALOGPS_LOGS>
-2.0599999

>  <JCHEM_MASS>
289.36938

>  <JCHEM_MDDR_LIKE_RULE>
0

>  <JCHEM_NUMBER_OF_RINGS>
3

>  <JCHEM_PHYSIOLOGICAL_CHARGE>
1

>  <JCHEM_PKA_STRONGEST_ACIDIC>
15.145741

>  <JCHEM_PKA_STRONGEST_BASIC>
9.3855619

>  <JCHEM_POLAR_SURFACE_AREA>
49.77

>  <JCHEM_REFRACTIVITY>
80.816399

>  <JCHEM_ROTATABLE_BOND_COUNT>
5

>  <JCHEM_RULE_OF_FIVE>
1

>  <ALOGPS_SOLUBILITY>
2.52e+00 g/l

>  <JCHEM_TRADITIONAL_IUPAC>
atropine

>  <JCHEM_VEBER_RULE>
0

>  <DRUGBANK_ID>
DB00572

>  <DRUG_GROUPS>
approved

>  <GENERIC_NAME>
Atropine

>  <SYNONYMS>
(±)-atropine; (±)-hyoscyamine; Atropin; Atropina; Atropine; Atropinum; dl-Hyoscyamine; dl-tropyltropate; Mydriasine; Tropine tropate

>  <BRANDS>
Anespin; Antol; AtroPen; Atropt; Atrospan; Bellapan; Dysurgal; Kintropine; Tromine

>  <SALTS>
Atropine Sulfate

$$$$
Fenoprofen
 OpenBabel02121510022D

 18 19  0  0  1  0  0  0  0  0999 V2000
    2.3640   -0.7470    0.0000 O   0  0  0  0  0  0  0  0  0  0  0  0
    4.5080    2.9660    0.0000 O   0  0  0  0  0  0  0  0  0  0  0  0
    5.2220    1.7280    0.0000 O   0  0  0  0  0  0  0  0  0  0  0  0
    3.7940    1.7280    0.0000 C   0  0  3  0  0  0  0  0  0  0  0  0
    3.7940    0.9030    0.0000 C   0  0  0  0  0  0  0  0  0  0  0  0
    3.0790    0.4910    0.0000 C   0  0  0  0  0  0  0  0  0  0  0  0
    3.0790    2.1410    0.0000 C   0  0  0  0  0  0  0  0  0  0  0  0
    4.5080    0.4910    0.0000 C   0  0  0  0  0  0  0  0  0  0  0  0
    3.0790   -0.3340    0.0000 C   0  0  0  0  0  0  0  0  0  0  0  0
    4.5080    2.1410    0.0000 C   0  0  0  0  0  0  0  0  0  0  0  0
    4.5080   -0.3340    0.0000 C   0  0  0  0  0  0  0  0  0  0  0  0
    3.7940   -0.7470    0.0000 C   0  0  0  0  0  0  0  0  0  0  0  0
    2.3640   -1.5720    0.0000 C   0  0  0  0  0  0  0  0  0  0  0  0
    3.0790   -1.9840    0.0000 C   0  0  0  0  0  0  0  0  0  0  0  0
    1.6500   -1.9840    0.0000 C   0  0  0  0  0  0  0  0  0  0  0  0
    3.0790   -2.8090    0.0000 C   0  0  0  0  0  0  0  0  0  0  0  0
    1.6500   -2.8090    0.0000 C   0  0  0  0  0  0  0  0  0  0  0  0
    2.3640   -3.2220    0.0000 C   0  0  0  0  0  0  0  0  0  0  0  0
  1  9  1  0  0  0  0
  1 13  1  0  0  0  0
  2 10  1  0  0  0  0
  3 10  2  0  0  0  0
  4  5  1  0  0  0  0
  4  7  1  0  0  0  0
  4 10  1  0  0  0  0
  5  6  2  0  0  0  0
  5  8  1  0  0  0  0
  6  9  1  0  0  0  0
  8 11  2  0  0  0  0
  9 12  2  0  0  0  0
 11 12  1  0  0  0  0
 13 14  2  0  0  0  0
 13 15  1  0  0  0  0
 14 16  1  0  0  0  0
 15 17  2  0  0  0  0
 16 18  2  0  0  0  0
 17 18  1  0  0  0  0
M  END
>  <DATABASE_ID>
DB00573

>  <DATABASE_NAME>
drugbank

>  <SMILES>
O(c1cc(ccc1)C(C(O)=O)C)c1ccccc1

>  <INCHI_IDENTIFIER>
InChI=1S/C15H14O3/c1-11(15(16)17)12-6-5-9-14(10-12)18-13-7-3-2-4-8-13/h2-11H,1H3,(H,16,17)

>  <INCHI_KEY>
InChIKey=RDJGLLICXDHJDY-UHFFFAOYSA-N

>  <JCHEM_ACCEPTOR_COUNT>
2

>  <JCHEM_AVERAGE_POLARIZABILITY>
25.297182

>  <JCHEM_BIOAVAILABILITY>
1

>  <JCHEM_DONOR_COUNT>
1

>  <JCHEM_EXACT_MASS>
242.0943

>  <JCHEM_FORMAL_CHARGE>
0

>  <JCHEM_FORMULA>
C15H14O3

>  <JCHEM_GHOSE_FILTER>
1

>  <JCHEM_IUPAC>
2-(3-phenoxyphenyl)propanoic acid

>  <ALOGPS_LOGP>
3.8699999

>  <JCHEM_LOGP>
3.6542675

>  <ALOGPS_LOGS>
-3.48

>  <JCHEM_MASS>
242.2699

>  <JCHEM_MDDR_LIKE_RULE>
0

>  <JCHEM_NUMBER_OF_RINGS>
2

>  <JCHEM_PHYSIOLOGICAL_CHARGE>
-1

>  <JCHEM_PKA_STRONGEST_ACIDIC>
3.9589744

>  <JCHEM_PKA_STRONGEST_BASIC>
-8.7095423

>  <JCHEM_POLAR_SURFACE_AREA>
46.529999

>  <JCHEM_REFRACTIVITY>
68.180901

>  <JCHEM_ROTATABLE_BOND_COUNT>
4

>  <JCHEM_RULE_OF_FIVE>
1

>  <ALOGPS_SOLUBILITY>
8.11e-02 g/l

>  <JCHEM_TRADITIONAL_IUPAC>
fenoprofen

>  <JCHEM_VEBER_RULE>
0

>  <DRUGBANK_ID>
DB00573

>  <DRUG_GROUPS>
approved

>  <GENERIC_NAME>
Fenoprofen

>  <SYNONYMS>
Fenoprofen; Fénoprofène; Fenoprofeno; Fenoprofenum

>  <BRANDS>
Feilin; Fenopron; Fepron; Kimpron; Nalfon; Nalgésic; Nonsic; Noprofen; Trandor

>  <SALTS>
Fenoprofen calcium

$$$$
Clonidine
 OpenBabel02121510022D

 14 15  0  0  0  0  0  0  0  0999 V2000
    4.5080   -0.3750    0.0000 Cl  0  0  0  0  0  0  0  0  0  0  0  0
    1.6500   -0.3750    0.0000 Cl  0  0  0  0  0  0  0  0  0  0  0  0
    3.8800    1.6830    0.0000 N   0  0  0  0  0  0  0  0  0  0  0  0
    3.0790    0.4500    0.0000 N   0  0  0  0  0  0  0  0  0  0  0  0
    4.5470    0.5270    0.0000 N   0  0  0  0  0  0  0  0  0  0  0  0
    4.6870    1.8540    0.0000 C   0  0  0  0  0  0  0  0  0  0  0  0
    5.0990    1.1400    0.0000 C   0  0  0  0  0  0  0  0  0  0  0  0
    3.7940    0.8620    0.0000 C   0  0  0  0  0  0  0  0  0  0  0  0
    3.0790   -0.3750    0.0000 C   0  0  0  0  0  0  0  0  0  0  0  0
    3.7940   -0.7880    0.0000 C   0  0  0  0  0  0  0  0  0  0  0  0
    2.3640   -0.7880    0.0000 C   0  0  0  0  0  0  0  0  0  0  0  0
    3.7940   -1.6130    0.0000 C   0  0  0  0  0  0  0  0  0  0  0  0
    2.3640   -1.6130    0.0000 C   0  0  0  0  0  0  0  0  0  0  0  0
    3.0790   -2.0250    0.0000 C   0  0  0  0  0  0  0  0  0  0  0  0
  1 10  1  0  0  0  0
  2 11  1  0  0  0  0
  3  6  1  0  0  0  0
  3  8  1  0  0  0  0
  4  8  1  0  0  0  0
  4  9  1  0  0  0  0
  5  7  1  0  0  0  0
  5  8  2  0  0  0  0
  6  7  1  0  0  0  0
  9 10  2  0  0  0  0
  9 11  1  0  0  0  0
 10 12  1  0  0  0  0
 11 13  2  0  0  0  0
 12 14  2  0  0  0  0
 13 14  1  0  0  0  0
M  END
>  <DATABASE_ID>
DB00575

>  <DATABASE_NAME>
drugbank

>  <SMILES>
Clc1cccc(Cl)c1NC=1NCCN=1

>  <INCHI_IDENTIFIER>
InChI=1S/C9H9Cl2N3/c10-6-2-1-3-7(11)8(6)14-9-12-4-5-13-9/h1-3H,4-5H2,(H2,12,13,14)

>  <INCHI_KEY>
InChIKey=GJSURZIOUXUGAL-UHFFFAOYSA-N

>  <JCHEM_ACCEPTOR_COUNT>
3

>  <JCHEM_AVERAGE_POLARIZABILITY>
21.696308

>  <JCHEM_BIOAVAILABILITY>
1

>  <JCHEM_DONOR_COUNT>
2

>  <JCHEM_EXACT_MASS>
229.01735

>  <JCHEM_FORMAL_CHARGE>
0

>  <JCHEM_FORMULA>
C9H9Cl2N3

>  <JCHEM_GHOSE_FILTER>
1

>  <JCHEM_IUPAC>
N-(2,6-dichlorophenyl)-4,5-dihydro-1H-imidazol-2-amine

>  <ALOGPS_LOGP>
2.55

>  <JCHEM_LOGP>
2.4850886

>  <ALOGPS_LOGS>
-2.6800001

>  <JCHEM_MASS>
230.09399

>  <JCHEM_MDDR_LIKE_RULE>
0

>  <JCHEM_NUMBER_OF_RINGS>
2

>  <JCHEM_PHYSIOLOGICAL_CHARGE>
1

>  <JCHEM_PKA_STRONGEST_BASIC>
8.1640167

>  <JCHEM_POLAR_SURFACE_AREA>
36.419998

>  <JCHEM_REFRACTIVITY>
59.088799

>  <JCHEM_ROTATABLE_BOND_COUNT>
1

>  <JCHEM_RULE_OF_FIVE>
1

>  <ALOGPS_SOLUBILITY>
4.80e-01 g/l

>  <JCHEM_TRADITIONAL_IUPAC>
clonidine

>  <JCHEM_VEBER_RULE>
1

>  <DRUGBANK_ID>
DB00575

>  <DRUG_GROUPS>
approved

>  <GENERIC_NAME>
Clonidine

>  <SYNONYMS>
Chlofazoline; Clonidin; Clonidina; Clonidinum

>  <BRANDS>
Catapres; Catapres-TTS; Catapresan; Catapressan; Dixarit; Duraclon; Isoglaucon; Kapvay; Nexiclon; Run Rui; Velaril; Winpress

>  <SALTS>
Clonidine Hydrochloride

$$$$
Sulfamethizole
 OpenBabel02121510022D

 17 18  0  0  0  0  0  0  0  0999 V2000
    2.4750    0.6630    0.0000 S   0  0  0  0  0  0  0  0  0  0  0  0
    3.9430    1.5650    0.0000 S   0  0  0  0  0  0  0  0  0  0  0  0
    1.6500    0.6630    0.0000 O   0  0  0  0  0  0  0  0  0  0  0  0
    3.3000    0.6630    0.0000 O   0  0  0  0  0  0  0  0  0  0  0  0
    2.4750    1.4880    0.0000 N   0  0  0  0  0  0  0  0  0  0  0  0
    3.2760    2.7210    0.0000 N   0  0  0  0  0  0  0  0  0  0  0  0
    2.4750   -2.6370    0.0000 N   0  0  0  0  0  0  0  0  0  0  0  0
    4.0830    2.8930    0.0000 N   0  0  0  0  0  0  0  0  0  0  0  0
    2.4750   -0.1620    0.0000 C   0  0  0  0  0  0  0  0  0  0  0  0
    1.7610   -0.5740    0.0000 C   0  0  0  0  0  0  0  0  0  0  0  0
    3.1900   -0.5740    0.0000 C   0  0  0  0  0  0  0  0  0  0  0  0
    2.4750   -1.8120    0.0000 C   0  0  0  0  0  0  0  0  0  0  0  0
    1.7610   -1.3990    0.0000 C   0  0  0  0  0  0  0  0  0  0  0  0
    3.1900   -1.3990    0.0000 C   0  0  0  0  0  0  0  0  0  0  0  0
    3.1900    1.9010    0.0000 C   0  0  0  0  0  0  0  0  0  0  0  0
    4.4950    2.1780    0.0000 C   0  0  0  0  0  0  0  0  0  0  0  0
    5.3160    2.0920    0.0000 C   0  0  0  0  0  0  0  0  0  0  0  0
  1  3  2  0  0  0  0
  1  4  2  0  0  0  0
  1  5  1  0  0  0  0
  1  9  1  0  0  0  0
  2 15  1  0  0  0  0
  2 16  1  0  0  0  0
  5 15  1  0  0  0  0
  6  8  1  0  0  0  0
  6 15  2  0  0  0  0
  7 12  1  0  0  0  0
  8 16  2  0  0  0  0
  9 10  2  0  0  0  0
  9 11  1  0  0  0  0
 10 13  1  0  0  0  0
 11 14  2  0  0  0  0
 12 13  2  0  0  0  0
 12 14  1  0  0  0  0
 16 17  1  0  0  0  0
M  END
>  <DATABASE_ID>
DB00576

>  <DATABASE_NAME>
drugbank

>  <SMILES>
s1c(nnc1NS(=O)(=O)c1ccc(N)cc1)C

>  <INCHI_IDENTIFIER>
InChI=1S/C9H10N4O2S2/c1-6-11-12-9(16-6)13-17(14,15)8-4-2-7(10)3-5-8/h2-5H,10H2,1H3,(H,12,13)

>  <INCHI_KEY>
InChIKey=VACCAVUAMIDAGB-UHFFFAOYSA-N

>  <JCHEM_ACCEPTOR_COUNT>
5

>  <JCHEM_AVERAGE_POLARIZABILITY>
26.26421

>  <JCHEM_BIOAVAILABILITY>
1

>  <JCHEM_DONOR_COUNT>
2

>  <JCHEM_EXACT_MASS>
270.02451

>  <JCHEM_FORMAL_CHARGE>
0

>  <JCHEM_FORMULA>
C9H10N4O2S2

>  <JCHEM_GHOSE_FILTER>
1

>  <JCHEM_IUPAC>
4-amino-N-(5-methyl-1,3,4-thiadiazol-2-yl)benzene-1-sulfonamide

>  <ALOGPS_LOGP>
0.52999997

>  <JCHEM_LOGP>
0.21434596

>  <ALOGPS_LOGS>
-2.6500001

>  <JCHEM_MASS>
270.33099

>  <JCHEM_MDDR_LIKE_RULE>
0

>  <JCHEM_NUMBER_OF_RINGS>
2

>  <JCHEM_PHYSIOLOGICAL_CHARGE>
-1

>  <JCHEM_PKA_STRONGEST_ACIDIC>
6.7076421

>  <JCHEM_PKA_STRONGEST_BASIC>
1.9517574

>  <JCHEM_POLAR_SURFACE_AREA>
97.970001

>  <JCHEM_REFRACTIVITY>
66.8358

>  <JCHEM_ROTATABLE_BOND_COUNT>
2

>  <JCHEM_RULE_OF_FIVE>
1

>  <ALOGPS_SOLUBILITY>
6.11e-01 g/l

>  <JCHEM_TRADITIONAL_IUPAC>
sulfamethizole

>  <JCHEM_VEBER_RULE>
0

>  <DRUGBANK_ID>
DB00576

>  <DRUG_GROUPS>
approved

>  <GENERIC_NAME>
Sulfamethizole

>  <SYNONYMS>
Sulfamethizol; Sulfaméthizol; Sulfamethizole; Sulfamethizolum; Sulfamethylthiadiazole; Sulfametizol

>  <BRANDS>
Lucosil; Rufol; Thiosulfil; Thiosulfil Forte

$$$$
Valaciclovir
 OpenBabel02121510022D

 23 24  0  0  1  0  0  0  0  0999 V2000
    7.4010    1.4760    0.0000 O   0  0  0  0  0  0  0  0  0  0  0  0
    6.0810   -0.2620    0.0000 O   0  0  0  0  0  0  0  0  0  0  0  0
    8.7590    1.0320    0.0000 O   0  0  0  0  0  0  0  0  0  0  0  0
    3.5220   -3.5310    0.0000 O   0  0  0  0  0  0  0  0  0  0  0  0
    5.0170   -1.2170    0.0000 N   0  0  0  0  0  0  0  0  0  0  0  0
    7.9130    3.0440    0.0000 N   0  0  0  0  0  0  0  0  0  0  0  0
    3.5220   -1.0560    0.0000 N   0  0  0  0  0  0  0  0  0  0  0  0
    5.0170   -2.5450    0.0000 N   0  0  0  0  0  0  0  0  0  0  0  0
    2.8080   -2.2930    0.0000 N   0  0  0  0  0  0  0  0  0  0  0  0
    2.0930   -1.0560    0.0000 N   0  0  0  0  0  0  0  0  0  0  0  0
    9.2720    2.6000    0.0000 C   0  0  0  0  0  0  0  0  0  0  0  0
    8.4640    2.4300    0.0000 C   0  0  1  0  0  0  0  0  0  0  0  0
    9.8220    1.9860    0.0000 C   0  0  0  0  0  0  0  0  0  0  0  0
    9.5280    3.3850    0.0000 C   0  0  0  0  0  0  0  0  0  0  0  0
    8.2080    1.6460    0.0000 C   0  0  0  0  0  0  0  0  0  0  0  0
    4.2360   -1.4680    0.0000 C   0  0  0  0  0  0  0  0  0  0  0  0
    5.2730   -0.4330    0.0000 C   0  0  0  0  0  0  0  0  0  0  0  0
    7.1440    0.6920    0.0000 C   0  0  0  0  0  0  0  0  0  0  0  0
    4.2360   -2.2930    0.0000 C   0  0  0  0  0  0  0  0  0  0  0  0
    6.3370    0.5220    0.0000 C   0  0  0  0  0  0  0  0  0  0  0  0
    5.4990   -1.8810    0.0000 C   0  0  0  0  0  0  0  0  0  0  0  0
    3.5220   -2.7060    0.0000 C   0  0  0  0  0  0  0  0  0  0  0  0
    2.8080   -1.4680    0.0000 C   0  0  0  0  0  0  0  0  0  0  0  0
  1 15  1  0  0  0  0
  1 18  1  0  0  0  0
  2 17  1  0  0  0  0
  2 20  1  0  0  0  0
  3 15  2  0  0  0  0
  4 22  2  0  0  0  0
  5 16  1  0  0  0  0
  5 17  1  0  0  0  0
  5 21  1  0  0  0  0
  7 16  1  0  0  0  0
  7 23  1  0  0  0  0
  8 19  1  0  0  0  0
  8 21  2  0  0  0  0
  9 22  1  0  0  0  0
  9 23  2  0  0  0  0
 10 23  1  0  0  0  0
 11 13  1  0  0  0  0
 11 14  1  0  0  0  0
 12 11  1  1  0  0  0
 12  6  1  0  0  0  0
 12 15  1  0  0  0  0
 16 19  2  0  0  0  0
 18 20  1  0  0  0  0
 19 22  1  0  0  0  0
M  END
>  <DATABASE_ID>
DB00577

>  <DATABASE_NAME>
drugbank

>  <SMILES>
O=C1N=C(Nc2n(cnc12)COCCOC(=O)[C@@H](N)C(C)C)N

>  <INCHI_IDENTIFIER>
InChI=1S/C13H20N6O4/c1-7(2)8(14)12(21)23-4-3-22-6-19-5-16-9-10(19)17-13(15)18-11(9)20/h5,7-8H,3-4,6,14H2,1-2H3,(H3,15,17,18,20)/t8-/m0/s1

>  <INCHI_KEY>
InChIKey=HDOVUKNUBWVHOX-QMMMGPOBSA-N

>  <JCHEM_ACCEPTOR_COUNT>
8

>  <JCHEM_AVERAGE_POLARIZABILITY>
31.96262

>  <JCHEM_BIOAVAILABILITY>
1

>  <JCHEM_DONOR_COUNT>
3

>  <JCHEM_EXACT_MASS>
324.1546

>  <JCHEM_FORMAL_CHARGE>
0

>  <JCHEM_FORMULA>
C13H20N6O4

>  <JCHEM_GHOSE_FILTER>
0

>  <JCHEM_IUPAC>
2-[(2-amino-6-oxo-6,9-dihydro-3H-purin-9-yl)methoxy]ethyl (2S)-2-amino-3-methylbutanoate

>  <ALOGPS_LOGP>
-0.83999997

>  <JCHEM_LOGP>
-0.45152116

>  <ALOGPS_LOGS>
-1.96

>  <JCHEM_MASS>
324.33569

>  <JCHEM_MDDR_LIKE_RULE>
0

>  <JCHEM_NUMBER_OF_RINGS>
2

>  <JCHEM_PHYSIOLOGICAL_CHARGE>
1

>  <JCHEM_PKA_STRONGEST_ACIDIC>
8.1038723

>  <JCHEM_PKA_STRONGEST_BASIC>
7.3606834

>  <JCHEM_POLAR_SURFACE_AREA>
146.85001

>  <JCHEM_REFRACTIVITY>
80.634102

>  <JCHEM_ROTATABLE_BOND_COUNT>
8

>  <JCHEM_RULE_OF_FIVE>
1

>  <ALOGPS_SOLUBILITY>
3.55e+00 g/l

>  <JCHEM_TRADITIONAL_IUPAC>
valaciclovir

>  <JCHEM_VEBER_RULE>
0

>  <DRUGBANK_ID>
DB00577

>  <DRUG_GROUPS>
approved; investigational

>  <GENERIC_NAME>
Valaciclovir

>  <SYNONYMS>
Valaciclovirum; Valacyclovir

>  <BRANDS>
Bagovir; Cycloval; Mitanga; Ovalac; Pervioral; Revira; Vacyless; Vadiral; Valdacir; Valotix; Valtrex; Valvir; Valztrex; Viramixal; Viropel; Vociflon; Zelitrex; Zelivire

>  <SALTS>
Valaciclovir Hydrochloride

$$$$
Carbenicillin
 OpenBabel02121510022D

 27 29  0  0  1  0  0  0  0  0999 V2000
    7.6200    0.3190    0.0000 S   0  0  0  0  0  0  0  0  0  0  0  0
    5.4220   -1.3490    0.0000 O   0  0  0  0  0  0  0  0  0  0  0  0
    7.3230   -2.4130    0.0000 O   0  0  0  0  0  0  0  0  0  0  0  0
    8.6820   -1.9720    0.0000 O   0  0  0  0  0  0  0  0  0  0  0  0
    4.4090   -0.3560    0.0000 O   0  0  0  0  0  0  0  0  0  0  0  0
    3.6750    2.4060    0.0000 O   0  0  0  0  0  0  0  0  0  0  0  0
    5.0540    2.0330    0.0000 O   0  0  0  0  0  0  0  0  0  0  0  0
    6.8350   -0.7610    0.0000 N   0  0  0  0  0  0  0  0  0  0  0  0
    5.4220    0.6520    0.0000 N   0  0  0  0  0  0  0  0  0  0  0  0
    6.8350    0.0640    0.0000 C   0  0  1  0  0  0  0  0  0  0  0  0
    8.1050   -0.3480    0.0000 C   0  0  0  0  0  0  0  0  0  0  0  0
    7.6200   -1.0160    0.0000 C   0  0  2  0  0  0  0  0  0  0  0  0
    6.0040    0.0680    0.0000 C   0  0  1  0  0  0  0  0  0  0  0  0
    6.0040   -0.7640    0.0000 C   0  0  0  0  0  0  0  0  0  0  0  0
    8.7720    0.1370    0.0000 C   0  0  0  0  0  0  0  0  0  0  0  0
    8.7720   -0.8330    0.0000 C   0  0  0  0  0  0  0  0  0  0  0  0
    7.8750   -1.8000    0.0000 C   0  0  0  0  0  0  0  0  0  0  0  0
    4.6240    0.4400    0.0000 C   0  0  0  0  0  0  0  0  0  0  0  0
    4.0420    1.0250    0.0000 C   0  0  3  0  0  0  0  0  0  0  0  0
    3.2450    0.8130    0.0000 C   0  0  0  0  0  0  0  0  0  0  0  0
    4.2570    1.8210    0.0000 C   0  0  0  0  0  0  0  0  0  0  0  0
    3.0300    0.0170    0.0000 C   0  0  0  0  0  0  0  0  0  0  0  0
    2.6620    1.3980    0.0000 C   0  0  0  0  0  0  0  0  0  0  0  0
    2.2320   -0.1950    0.0000 C   0  0  0  0  0  0  0  0  0  0  0  0
    1.8650    1.1860    0.0000 C   0  0  0  0  0  0  0  0  0  0  0  0
    1.6500    0.3890    0.0000 C   0  0  0  0  0  0  0  0  0  0  0  0
    6.7340    0.7160    0.0000 H   0  0  0  0  0  0  0  0  0  0  0  0
  1 10  1  0  0  0  0
  1 11  1  0  0  0  0
  2 14  2  0  0  0  0
  3 17  1  0  0  0  0
  4 17  2  0  0  0  0
  5 18  2  0  0  0  0
  6 21  1  0  0  0  0
  7 21  2  0  0  0  0
  8 10  1  0  0  0  0
  8 12  1  0  0  0  0
  8 14  1  0  0  0  0
  9 18  1  0  0  0  0
 10 13  1  0  0  0  0
 10 27  1  6  0  0  0
 11 12  1  0  0  0  0
 11 15  1  0  0  0  0
 11 16  1  0  0  0  0
 12 17  1  6  0  0  0
 13  9  1  1  0  0  0
 13 14  1  0  0  0  0
 18 19  1  0  0  0  0
 19 20  1  0  0  0  0
 19 21  1  0  0  0  0
 20 22  2  0  0  0  0
 20 23  1  0  0  0  0
 22 24  1  0  0  0  0
 23 25  2  0  0  0  0
 24 26  2  0  0  0  0
 25 26  1  0  0  0  0
M  END
>  <DATABASE_ID>
DB00578

>  <DATABASE_NAME>
drugbank

>  <SMILES>
S1[C@H]2N([C@@H](C(O)=O)C1(C)C)C(=O)[C@H]2NC(=O)C(C(O)=O)c1ccccc1

>  <INCHI_IDENTIFIER>
InChI=1S/C17H18N2O6S/c1-17(2)11(16(24)25)19-13(21)10(14(19)26-17)18-12(20)9(15(22)23)8-6-4-3-5-7-8/h3-7,9-11,14H,1-2H3,(H,18,20)(H,22,23)(H,24,25)/t9?,10-,11+,14-/m1/s1

>  <INCHI_KEY>
InChIKey=FPPNZSSZRUTDAP-UWFZAAFLSA-N

>  <JCHEM_ACCEPTOR_COUNT>
6

>  <JCHEM_AVERAGE_POLARIZABILITY>
36.38718

>  <JCHEM_BIOAVAILABILITY>
1

>  <JCHEM_DONOR_COUNT>
3

>  <JCHEM_EXACT_MASS>
378.08856

>  <JCHEM_FORMAL_CHARGE>
0

>  <JCHEM_FORMULA>
C17H18N2O6S

>  <JCHEM_GHOSE_FILTER>
1

>  <JCHEM_IUPAC>
(2S,5R,6R)-6-(2-carboxy-2-phenylacetamido)-3,3-dimethyl-7-oxo-4-thia-1-azabicyclo[3.2.0]heptane-2-carboxylic acid

>  <ALOGPS_LOGP>
1.13

>  <JCHEM_LOGP>
0.81535685

>  <ALOGPS_LOGS>
-2.99

>  <JCHEM_MASS>
378.39999

>  <JCHEM_MDDR_LIKE_RULE>
0

>  <JCHEM_NUMBER_OF_RINGS>
3

>  <JCHEM_PHYSIOLOGICAL_CHARGE>
-2

>  <JCHEM_PKA>
3.861609

>  <JCHEM_PKA_STRONGEST_ACIDIC>
3.1068087

>  <JCHEM_PKA_STRONGEST_BASIC>
-6.3238339

>  <JCHEM_POLAR_SURFACE_AREA>
124.01

>  <JCHEM_REFRACTIVITY>
90.819504

>  <JCHEM_ROTATABLE_BOND_COUNT>
5

>  <JCHEM_RULE_OF_FIVE>
1

>  <ALOGPS_SOLUBILITY>
3.90e-01 g/l

>  <JCHEM_TRADITIONAL_IUPAC>
carbenicillin

>  <JCHEM_VEBER_RULE>
0

>  <DRUGBANK_ID>
DB00578

>  <DRUG_GROUPS>
approved

>  <GENERIC_NAME>
Carbenicillin

>  <SYNONYMS>
Carbenicilina; Carbenicillin; Carbenicilline; Carbenicillinum; Carboxybenzylpenicillin

>  <BRANDS>
Carbenicillin; Pyopen

$$$$
Lactulose
 OpenBabel02121510022D

 23 24  0  0  1  0  0  0  0  0999 V2000
    5.6660   -0.5560    0.0000 O   0  0  0  0  0  0  0  0  0  0  0  0
    5.2530    1.5380    0.0000 O   0  0  0  0  0  0  0  0  0  0  0  0
    4.2360   -0.5560    0.0000 O   0  0  0  0  0  0  0  0  0  0  0  0
    7.1180    0.4990    0.0000 O   0  0  0  0  0  0  0  0  0  0  0  0
    6.8630    1.7930    0.0000 O   0  0  0  0  0  0  0  0  0  0  0  0
    5.6660   -2.2060    0.0000 O   0  0  0  0  0  0  0  0  0  0  0  0
    4.2360   -3.0310    0.0000 O   0  0  0  0  0  0  0  0  0  0  0  0
    2.8080   -2.2060    0.0000 O   0  0  0  0  0  0  0  0  0  0  0  0
    3.6000    1.0510    0.0000 O   0  0  0  0  0  0  0  0  0  0  0  0
    5.3630    2.7760    0.0000 O   0  0  0  0  0  0  0  0  0  0  0  0
    2.0930   -0.9690    0.0000 O   0  0  0  0  0  0  0  0  0  0  0  0
    5.6660    0.2690    0.0000 C   0  0  1  0  0  0  0  0  0  0  0  0
    6.3330    0.7540    0.0000 C   0  0  1  0  0  0  0  0  0  0  0  0
    4.9980    0.7540    0.0000 C   0  0  1  0  0  0  0  0  0  0  0  0
    6.0780    1.5380    0.0000 C   0  0  1  0  0  0  0  0  0  0  0  0
    4.9510   -0.9690    0.0000 C   0  0  2  0  0  0  0  0  0  0  0  0
    4.9510   -1.7940    0.0000 C   0  0  1  0  0  0  0  0  0  0  0  0
    4.2360   -2.2060    0.0000 C   0  0  2  0  0  0  0  0  0  0  0  0
    3.5220   -1.7940    0.0000 C   0  0  2  0  0  0  0  0  0  0  0  0
    3.5220   -0.9690    0.0000 C   0  0  1  0  0  0  0  0  0  0  0  0
    4.2130    0.4990    0.0000 C   0  0  0  0  0  0  0  0  0  0  0  0
    6.0780    2.3630    0.0000 C   0  0  0  0  0  0  0  0  0  0  0  0
    2.8080   -0.5560    0.0000 C   0  0  0  0  0  0  0  0  0  0  0  0
  2 14  1  0  0  0  0
  2 15  1  0  0  0  0
  3 16  1  0  0  0  0
  3 20  1  0  0  0  0
  9 21  1  0  0  0  0
 10 22  1  0  0  0  0
 11 23  1  0  0  0  0
 12  1  1  6  0  0  0
 12 13  1  0  0  0  0
 12 14  1  0  0  0  0
 13  4  1  1  0  0  0
 13 15  1  0  0  0  0
 14 21  1  1  0  0  0
 15  5  1  1  0  0  0
 15 22  1  0  0  0  0
 16  1  1  1  0  0  0
 16 17  1  0  0  0  0
 17  6  1  6  0  0  0
 17 18  1  0  0  0  0
 18  7  1  1  0  0  0
 18 19  1  0  0  0  0
 19  8  1  1  0  0  0
 19 20  1  0  0  0  0
 20 23  1  1  0  0  0
M  END
>  <DATABASE_ID>
DB00581

>  <DATABASE_NAME>
drugbank

>  <SMILES>
O1[C@](O)(CO)[C@@H](O)[C@H](O[C@@H]2O[C@H](CO)[C@H](O)[C@H](O)[C@H]2O)[C@H]1CO

>  <INCHI_IDENTIFIER>
InChI=1S/C12H22O11/c13-1-4-6(16)7(17)8(18)11(21-4)22-9-5(2-14)23-12(20,3-15)10(9)19/h4-11,13-20H,1-3H2/t4-,5-,6+,7+,8-,9-,10+,11+,12-/m1/s1

>  <INCHI_KEY>
InChIKey=JCQLYHFGKNRPGE-FCVZTGTOSA-N

>  <JCHEM_ACCEPTOR_COUNT>
11

>  <JCHEM_AVERAGE_POLARIZABILITY>
31.493486

>  <JCHEM_BIOAVAILABILITY>
0

>  <JCHEM_DONOR_COUNT>
8

>  <JCHEM_EXACT_MASS>
342.11621

>  <JCHEM_FORMAL_CHARGE>
0

>  <JCHEM_FORMULA>
C12H22O11

>  <JCHEM_GHOSE_FILTER>
0

>  <JCHEM_IUPAC>
(2S,3R,4S,5R,6R)-2-{[(2R,3S,4S,5R)-4,5-dihydroxy-2,5-bis(hydroxymethyl)oxolan-3-yl]oxy}-6-(hydroxymethyl)oxane-3,4,5-triol

>  <ALOGPS_LOGP>
-3.26

>  <JCHEM_LOGP>
-4.5288348

>  <ALOGPS_LOGS>
0.36000001

>  <JCHEM_MASS>
342.29651

>  <JCHEM_MDDR_LIKE_RULE>
0

>  <JCHEM_NUMBER_OF_RINGS>
2

>  <JCHEM_PHYSIOLOGICAL_CHARGE>
0

>  <JCHEM_PKA>
12.14359

>  <JCHEM_PKA_STRONGEST_ACIDIC>
10.279233

>  <JCHEM_PKA_STRONGEST_BASIC>
-2.9810836

>  <JCHEM_POLAR_SURFACE_AREA>
189.53

>  <JCHEM_REFRACTIVITY>
68.774101

>  <JCHEM_ROTATABLE_BOND_COUNT>
5

>  <JCHEM_RULE_OF_FIVE>
0

>  <ALOGPS_SOLUBILITY>
7.92e+02 g/l

>  <JCHEM_TRADITIONAL_IUPAC>
lactulose

>  <JCHEM_VEBER_RULE>
0

>  <DRUGBANK_ID>
DB00581

>  <DRUG_GROUPS>
approved

>  <GENERIC_NAME>
Lactulose

>  <SYNONYMS>
4-O-beta-D-Galactopyranosyl-D-fructofuranose; 4-O-beta-D-Galactopyranosyl-D-fructose; Lactulosa; Lactulose; Lactulosum

>  <BRANDS>
Bifiteral; Cephulac; Cholac; Chronulac; Constilac; Constulose; Duphalac; Enulose; Generlac; Kristalose; Laevolac

$$$$
Voriconazole
 OpenBabel02121510022D

 25 27  0  0  1  0  0  0  0  0999 V2000
    1.6500   -0.4120    0.0000 F   0  0  0  0  0  0  0  0  0  0  0  0
    4.5080    0.4120    0.0000 F   0  0  0  0  0  0  0  0  0  0  0  0
    3.0790   -2.8880    0.0000 F   0  0  0  0  0  0  0  0  0  0  0  0
    2.2540    0.4120    0.0000 O   0  0  0  0  0  0  0  0  0  0  0  0
    4.5360   -0.1180    0.0000 N   0  0  0  0  0  0  0  0  0  0  0  0
    3.7930    2.4750    0.0000 N   0  0  0  0  0  0  0  0  0  0  0  0
    5.3360    0.0820    0.0000 N   0  0  0  0  0  0  0  0  0  0  0  0
    5.2430   -1.2500    0.0000 N   0  0  0  0  0  0  0  0  0  0  0  0
    5.2220    2.4750    0.0000 N   0  0  0  0  0  0  0  0  0  0  0  0
    3.0790    0.4120    0.0000 C   0  0  1  0  0  0  0  0  0  0  0  0
    3.0790    1.2380    0.0000 C   0  0  1  0  0  0  0  0  0  0  0  0
    3.9040    0.4120    0.0000 C   0  0  0  0  0  0  0  0  0  0  0  0
    3.0790   -0.4120    0.0000 C   0  0  0  0  0  0  0  0  0  0  0  0
    2.3640    1.6500    0.0000 C   0  0  0  0  0  0  0  0  0  0  0  0
    3.7930    1.6500    0.0000 C   0  0  0  0  0  0  0  0  0  0  0  0
    2.3640   -0.8250    0.0000 C   0  0  0  0  0  0  0  0  0  0  0  0
    3.7930   -0.8250    0.0000 C   0  0  0  0  0  0  0  0  0  0  0  0
    4.5080    1.2380    0.0000 C   0  0  0  0  0  0  0  0  0  0  0  0
    2.3640   -1.6500    0.0000 C   0  0  0  0  0  0  0  0  0  0  0  0
    3.7930   -1.6500    0.0000 C   0  0  0  0  0  0  0  0  0  0  0  0
    4.4780   -0.9410    0.0000 C   0  0  0  0  0  0  0  0  0  0  0  0
    3.0790   -2.0620    0.0000 C   0  0  0  0  0  0  0  0  0  0  0  0
    5.2220    1.6500    0.0000 C   0  0  0  0  0  0  0  0  0  0  0  0
    4.5080    2.8880    0.0000 C   0  0  0  0  0  0  0  0  0  0  0  0
    5.7740   -0.6180    0.0000 C   0  0  0  0  0  0  0  0  0  0  0  0
  1 16  1  0  0  0  0
  2 18  1  0  0  0  0
  3 22  1  0  0  0  0
  5  7  1  0  0  0  0
  5 12  1  0  0  0  0
  5 21  1  0  0  0  0
  6 15  1  0  0  0  0
  6 24  2  0  0  0  0
  7 25  2  0  0  0  0
  8 21  2  0  0  0  0
  8 25  1  0  0  0  0
  9 23  2  0  0  0  0
  9 24  1  0  0  0  0
 10  4  1  1  0  0  0
 10 11  1  0  0  0  0
 10 12  1  0  0  0  0
 10 13  1  0  0  0  0
 11 14  1  1  0  0  0
 11 15  1  0  0  0  0
 13 16  1  0  0  0  0
 13 17  2  0  0  0  0
 15 18  2  0  0  0  0
 16 19  2  0  0  0  0
 17 20  1  0  0  0  0
 18 23  1  0  0  0  0
 19 22  1  0  0  0  0
 20 22  2  0  0  0  0
M  END
>  <DATABASE_ID>
DB00582

>  <DATABASE_NAME>
drugbank

>  <SMILES>
Fc1cc(F)ccc1[C@](O)([C@@H](C)c1ncncc1F)Cn1ncnc1

>  <INCHI_IDENTIFIER>
InChI=1S/C16H14F3N5O/c1-10(15-14(19)5-20-7-22-15)16(25,6-24-9-21-8-23-24)12-3-2-11(17)4-13(12)18/h2-5,7-10,25H,6H2,1H3/t10-,16+/m0/s1

>  <INCHI_KEY>
InChIKey=BCEHBSKCWLPMDN-MGPLVRAMSA-N

>  <JCHEM_ACCEPTOR_COUNT>
5

>  <JCHEM_AVERAGE_POLARIZABILITY>
30.544262

>  <JCHEM_BIOAVAILABILITY>
1

>  <JCHEM_DONOR_COUNT>
1

>  <JCHEM_EXACT_MASS>
349.11505

>  <JCHEM_FORMAL_CHARGE>
0

>  <JCHEM_FORMULA>
C16H14F3N5O

>  <JCHEM_GHOSE_FILTER>
1

>  <JCHEM_IUPAC>
(2R,3S)-2-(2,4-difluorophenyl)-3-(5-fluoropyrimidin-4-yl)-1-(1H-1,2,4-triazol-1-yl)butan-2-ol

>  <ALOGPS_LOGP>
1.65

>  <JCHEM_LOGP>
1.8230326

>  <ALOGPS_LOGS>
-3.55

>  <JCHEM_MASS>
349.31049

>  <JCHEM_MDDR_LIKE_RULE>
0

>  <JCHEM_NUMBER_OF_RINGS>
3

>  <JCHEM_PHYSIOLOGICAL_CHARGE>
0

>  <JCHEM_PKA_STRONGEST_ACIDIC>
12.708208

>  <JCHEM_PKA_STRONGEST_BASIC>
2.2689142

>  <JCHEM_POLAR_SURFACE_AREA>
76.720001

>  <JCHEM_REFRACTIVITY>
95.278

>  <JCHEM_ROTATABLE_BOND_COUNT>
5

>  <JCHEM_RULE_OF_FIVE>
1

>  <ALOGPS_SOLUBILITY>
9.78e-02 g/l

>  <JCHEM_TRADITIONAL_IUPAC>
voriconazole

>  <JCHEM_VEBER_RULE>
0

>  <DRUGBANK_ID>
DB00582

>  <DRUG_GROUPS>
approved; investigational

>  <GENERIC_NAME>
Voriconazole

>  <SYNONYMS>
VCZ

>  <BRANDS>
Vfend

$$$$
L-Carnitine
 OpenBabel02121510022D

 11 10  0  0  1  0  0  0  0  0999 V2000
    3.7940   -0.6420    0.0000 O   0  0  0  0  0  0  0  0  0  0  0  0
    5.9370    0.5960    0.0000 O   0  5  0  0  0  0  0  0  0  0  0  0
    5.2220   -0.6420    0.0000 O   0  0  0  0  0  0  0  0  0  0  0  0
    2.3640    0.1830    0.0000 N   0  3  0  0  0  0  0  0  0  0  0  0
    3.0790    0.5960    0.0000 C   0  0  0  0  0  0  0  0  0  0  0  0
    3.7940    0.1830    0.0000 C   0  0  1  0  0  0  0  0  0  0  0  0
    1.6500   -0.2290    0.0000 C   0  0  0  0  0  0  0  0  0  0  0  0
    1.9520    0.8980    0.0000 C   0  0  0  0  0  0  0  0  0  0  0  0
    2.7770   -0.5310    0.0000 C   0  0  0  0  0  0  0  0  0  0  0  0
    4.5080    0.5960    0.0000 C   0  0  0  0  0  0  0  0  0  0  0  0
    5.2220    0.1830    0.0000 C   0  0  0  0  0  0  0  0  0  0  0  0
  2 11  1  0  0  0  0
  3 11  2  0  0  0  0
  4  5  1  0  0  0  0
  4  7  1  0  0  0  0
  4  8  1  0  0  0  0
  4  9  1  0  0  0  0
  6  5  1  1  0  0  0
  6  1  1  0  0  0  0
  6 10  1  0  0  0  0
 10 11  1  0  0  0  0
M  CHG  2   2  -1   4   1
M  END
>  <DATABASE_ID>
DB00583

>  <DATABASE_NAME>
drugbank

>  <SMILES>
O=C([O-])C[C@@H](O)C[N+](C)(C)C

>  <INCHI_IDENTIFIER>
InChI=1S/C7H15NO3/c1-8(2,3)5-6(9)4-7(10)11/h6,9H,4-5H2,1-3H3/t6-/m1/s1

>  <INCHI_KEY>
InChIKey=PHIQHXFUZVPYII-ZCFIWIBFSA-N

>  <JCHEM_ACCEPTOR_COUNT>
3

>  <JCHEM_AVERAGE_POLARIZABILITY>
16.925705

>  <JCHEM_BIOAVAILABILITY>
1

>  <JCHEM_DONOR_COUNT>
1

>  <JCHEM_EXACT_MASS>
161.10519

>  <JCHEM_FORMAL_CHARGE>
0

>  <JCHEM_FORMULA>
C7H15NO3

>  <JCHEM_GHOSE_FILTER>
0

>  <JCHEM_IUPAC>
(3R)-3-hydroxy-4-(trimethylazaniumyl)butanoate

>  <ALOGPS_LOGP>
-2.9000001

>  <JCHEM_LOGP>
-4.887506

>  <ALOGPS_LOGS>
-1.6

>  <JCHEM_MASS>
161.1989

>  <JCHEM_MDDR_LIKE_RULE>
0

>  <JCHEM_NUMBER_OF_RINGS>
0

>  <JCHEM_PHYSIOLOGICAL_CHARGE>
0

>  <JCHEM_PKA>
13.52497

>  <JCHEM_PKA_STRONGEST_ACIDIC>
4.1961756

>  <JCHEM_PKA_STRONGEST_BASIC>
-3.5695233

>  <JCHEM_POLAR_SURFACE_AREA>
60.360001

>  <JCHEM_REFRACTIVITY>
63.485298

>  <JCHEM_ROTATABLE_BOND_COUNT>
4

>  <JCHEM_RULE_OF_FIVE>
1

>  <ALOGPS_SOLUBILITY>
5.33e+00 g/l

>  <JCHEM_TRADITIONAL_IUPAC>
L-carnitine

>  <JCHEM_VEBER_RULE>
0

>  <DRUGBANK_ID>
DB00583

>  <DRUG_GROUPS>
approved

>  <GENERIC_NAME>
L-Carnitine

>  <SYNONYMS>
(-)-Carnitine; Carnitine; Levocarnitin; Levocarnitina; Lévocarnitine; Levocarnitinum

>  <BRANDS>
Albicar; Aveptol; Biocarn; Bitobionil; Cardimax; Cardispan; Carniben; Carnicor; Carnitor; Lecarna

>  <SALTS>
L-Carnitin Hydrochloride

$$$$
Enalapril
 OpenBabel02121510022D

 27 28  0  0  1  0  0  0  0  0999 V2000
    9.1800   -4.8010    0.0000 N   0  0  0  0  0  0  0  0  0  0  0  0
    8.4670   -5.2160    0.0000 C   0  0  0  0  0  0  0  0  0  0  0  0
    9.9340   -5.1330    0.0000 C   0  0  2  0  0  0  0  0  0  0  0  0
    7.0380   -5.2200    0.0000 N   0  0  0  0  0  0  0  0  0  0  0  0
    7.7510   -4.8050    0.0000 C   0  0  1  0  0  0  0  0  0  0  0  0
   10.1060   -5.9430    0.0000 C   0  0  0  0  0  0  0  0  0  0  0  0
    6.3220   -3.9890    0.0000 C   0  0  0  0  0  0  0  0  0  0  0  0
    6.3300   -4.8120    0.0000 C   0  0  2  0  0  0  0  0  0  0  0  0
    8.4680   -6.0370    0.0000 O   0  0  0  0  0  0  0  0  0  0  0  0
    9.4970   -6.4940    0.0000 O   0  0  0  0  0  0  0  0  0  0  0  0
    7.0250   -3.5620    0.0000 O   0  0  0  0  0  0  0  0  0  0  0  0
    5.6170   -5.2260    0.0000 C   0  0  0  0  0  0  0  0  0  0  0  0
    9.2620   -3.9780    0.0000 C   0  0  0  0  0  0  0  0  0  0  0  0
   10.8930   -6.1910    0.0000 O   0  0  0  0  0  0  0  0  0  0  0  0
    5.6010   -3.5880    0.0000 O   0  0  0  0  0  0  0  0  0  0  0  0
    4.9040   -4.8210    0.0000 C   0  0  0  0  0  0  0  0  0  0  0  0
   10.4820   -4.5220    0.0000 C   0  0  0  0  0  0  0  0  0  0  0  0
    4.1900   -5.2360    0.0000 C   0  0  0  0  0  0  0  0  0  0  0  0
   10.0670   -3.8080    0.0000 C   0  0  0  0  0  0  0  0  0  0  0  0
    7.7510   -3.9850    0.0000 C   0  0  0  0  0  0  0  0  0  0  0  0
    5.5880   -2.7620    0.0000 C   0  0  0  0  0  0  0  0  0  0  0  0
    3.4740   -4.8250    0.0000 C   0  0  0  0  0  0  0  0  0  0  0  0
    4.1900   -6.0560    0.0000 C   0  0  0  0  0  0  0  0  0  0  0  0
    2.7610   -5.2400    0.0000 C   0  0  0  0  0  0  0  0  0  0  0  0
    3.4770   -6.4710    0.0000 C   0  0  0  0  0  0  0  0  0  0  0  0
    2.7640   -6.0650    0.0000 C   0  0  0  0  0  0  0  0  0  0  0  0
    4.8670   -2.3610    0.0000 C   0  0  0  0  0  0  0  0  0  0  0  0
  1  2  1  0  0  0  0
  1  3  1  0  0  0  0
  1 13  1  0  0  0  0
  2  9  2  0  0  0  0
  3  6  1  1  0  0  0
  3 17  1  0  0  0  0
  4  5  1  0  0  0  0
  5  2  1  1  0  0  0
  5 20  1  0  0  0  0
  6 10  2  0  0  0  0
  6 14  1  0  0  0  0
  7 11  2  0  0  0  0
  7 15  1  0  0  0  0
  8  4  1  1  0  0  0
  8  7  1  0  0  0  0
  8 12  1  0  0  0  0
 12 16  1  0  0  0  0
 13 19  1  0  0  0  0
 15 21  1  0  0  0  0
 16 18  1  0  0  0  0
 17 19  1  0  0  0  0
 18 22  2  0  0  0  0
 18 23  1  0  0  0  0
 21 27  1  0  0  0  0
 22 24  1  0  0  0  0
 23 25  2  0  0  0  0
 24 26  2  0  0  0  0
 25 26  1  0  0  0  0
M  END
>  <DATABASE_ID>
DB00584

>  <DATABASE_NAME>
drugbank

>  <SMILES>
O(CC)C(=O)[C@@H](N[C@H](C(=O)N1CCC[C@H]1C(O)=O)C)CCc1ccccc1

>  <INCHI_IDENTIFIER>
InChI=1S/C20H28N2O5/c1-3-27-20(26)16(12-11-15-8-5-4-6-9-15)21-14(2)18(23)22-13-7-10-17(22)19(24)25/h4-6,8-9,14,16-17,21H,3,7,10-13H2,1-2H3,(H,24,25)/t14-,16-,17-/m0/s1

>  <INCHI_KEY>
InChIKey=GBXSMTUPTTWBMN-XIRDDKMYSA-N

>  <JCHEM_ACCEPTOR_COUNT>
5

>  <JCHEM_AVERAGE_POLARIZABILITY>
40.407265

>  <JCHEM_BIOAVAILABILITY>
1

>  <JCHEM_DONOR_COUNT>
2

>  <JCHEM_EXACT_MASS>
376.19983

>  <JCHEM_FORMAL_CHARGE>
0

>  <JCHEM_FORMULA>
C20H28N2O5

>  <JCHEM_GHOSE_FILTER>
1

>  <JCHEM_IUPAC>
(2S)-1-[(2S)-2-{[(2S)-1-ethoxy-1-oxo-4-phenylbutan-2-yl]amino}propanoyl]pyrrolidine-2-carboxylic acid

>  <ALOGPS_LOGP>
0.19

>  <JCHEM_LOGP>
0.5877766

>  <ALOGPS_LOGS>
-3.25

>  <JCHEM_MASS>
376.44669

>  <JCHEM_MDDR_LIKE_RULE>
0

>  <JCHEM_NUMBER_OF_RINGS>
2

>  <JCHEM_PHYSIOLOGICAL_CHARGE>
-1

>  <JCHEM_PKA_STRONGEST_ACIDIC>
3.6713305

>  <JCHEM_PKA_STRONGEST_BASIC>
5.2013407

>  <JCHEM_POLAR_SURFACE_AREA>
95.940002

>  <JCHEM_REFRACTIVITY>
99.5746

>  <JCHEM_ROTATABLE_BOND_COUNT>
10

>  <JCHEM_RULE_OF_FIVE>
1

>  <ALOGPS_SOLUBILITY>
2.13e-01 g/l

>  <JCHEM_TRADITIONAL_IUPAC>
enalapril

>  <JCHEM_VEBER_RULE>
0

>  <DRUGBANK_ID>
DB00584

>  <DRUG_GROUPS>
approved

>  <GENERIC_NAME>
Enalapril

>  <SYNONYMS>
Enalapril; Enalaprilum

>  <BRANDS>
Acetec; Acetensil; Alapren; Amotac; Amprace; Dilvas; Diotensil; Drepatil; Enace; EnaHexal; Enal; Enalapoten; Enalaprilat; Enpril; Feliberal; Gadopril; Glioten; Kinfil; Vasotec; Vasotec IV

>  <SALTS>
Enalapril Maleate

$$$$
Nizatidine
 OpenBabel02121510022D

 21 21  0  0  0  0  0  0  0  0999 V2000
    6.6270   -0.5860    0.0000 S   0  0  0  0  0  0  0  0  0  0  0  0
    9.1050   -0.0980    0.0000 S   0  0  0  0  0  0  0  0  0  0  0  0
    1.6500    0.0510    0.0000 O   0  5  0  0  0  0  0  0  0  0  0  0
    2.6060    1.1130    0.0000 O   0  0  0  0  0  0  0  0  0  0  0  0
   10.7580   -0.5860    0.0000 N   0  0  0  0  0  0  0  0  0  0  0  0
    8.6920   -1.3680    0.0000 N   0  0  0  0  0  0  0  0  0  0  0  0
    4.4450   -0.5430    0.0000 N   0  0  0  0  0  0  0  0  0  0  0  0
    4.0040    0.8160    0.0000 N   0  0  0  0  0  0  0  0  0  0  0  0
    2.4340    0.3060    0.0000 N   0  3  0  0  0  0  0  0  0  0  0  0
   10.1440   -1.1380    0.0000 C   0  0  0  0  0  0  0  0  0  0  0  0
    9.3600   -0.8830    0.0000 C   0  0  0  0  0  0  0  0  0  0  0  0
    5.8430   -0.8400    0.0000 C   0  0  0  0  0  0  0  0  0  0  0  0
    8.0250   -0.8830    0.0000 C   0  0  0  0  0  0  0  0  0  0  0  0
    7.2400   -1.1380    0.0000 C   0  0  0  0  0  0  0  0  0  0  0  0
    5.2300   -0.2880    0.0000 C   0  0  0  0  0  0  0  0  0  0  0  0
    8.2800   -0.0980    0.0000 C   0  0  0  0  0  0  0  0  0  0  0  0
   11.5420   -0.8400    0.0000 C   0  0  0  0  0  0  0  0  0  0  0  0
   10.5860    0.2210    0.0000 C   0  0  0  0  0  0  0  0  0  0  0  0
    3.8320    0.0090    0.0000 C   0  0  0  0  0  0  0  0  0  0  0  0
    3.0480   -0.2460    0.0000 C   0  0  0  0  0  0  0  0  0  0  0  0
    3.3900    1.3680    0.0000 C   0  0  0  0  0  0  0  0  0  0  0  0
  1 12  1  0  0  0  0
  1 14  1  0  0  0  0
  2 11  1  0  0  0  0
  2 16  1  0  0  0  0
  3  9  1  0  0  0  0
  4  9  2  0  0  0  0
  5 10  1  0  0  0  0
  5 17  1  0  0  0  0
  5 18  1  0  0  0  0
  6 11  2  0  0  0  0
  6 13  1  0  0  0  0
  7 15  1  0  0  0  0
  7 19  1  0  0  0  0
  8 19  1  0  0  0  0
  8 21  1  0  0  0  0
  9 20  1  0  0  0  0
 10 11  1  0  0  0  0
 12 15  1  0  0  0  0
 13 14  1  0  0  0  0
 13 16  2  0  0  0  0
 19 20  2  0  0  0  0
M  CHG  2   3  -1   9   1
M  END
>  <DATABASE_ID>
DB00585

>  <DATABASE_NAME>
drugbank

>  <SMILES>
s1cc(nc1CN(C)C)CSCCN\C(\NC)=C\[N+](=O)[O-]

>  <INCHI_IDENTIFIER>
InChI=1S/C12H21N5O2S2/c1-13-11(6-17(18)19)14-4-5-20-8-10-9-21-12(15-10)7-16(2)3/h6,9,13-14H,4-5,7-8H2,1-3H3/b11-6+

>  <INCHI_KEY>
InChIKey=SGXXNSQHWDMGGP-IZZDOVSWSA-N

>  <JCHEM_ACCEPTOR_COUNT>
6

>  <JCHEM_AVERAGE_POLARIZABILITY>
35.490475

>  <JCHEM_BIOAVAILABILITY>
1

>  <JCHEM_DONOR_COUNT>
2

>  <JCHEM_EXACT_MASS>
331.11368

>  <JCHEM_FORMAL_CHARGE>
0

>  <JCHEM_FORMULA>
C12H21N5O2S2

>  <JCHEM_GHOSE_FILTER>
1

>  <JCHEM_IUPAC>
dimethyl[(4-{[(2-{[(E)-1-(methylamino)-2-nitroethenyl]amino}ethyl)sulfanyl]methyl}-1,3-thiazol-2-yl)methyl]amine

>  <ALOGPS_LOGP>
0.69999999

>  <JCHEM_LOGP>
0.76301336

>  <ALOGPS_LOGS>
-3.9300001

>  <JCHEM_MASS>
331.457

>  <JCHEM_MDDR_LIKE_RULE>
0

>  <JCHEM_NUMBER_OF_RINGS>
1

>  <JCHEM_PHYSIOLOGICAL_CHARGE>
0

>  <JCHEM_PKA_STRONGEST_BASIC>
6.8285327

>  <JCHEM_POLAR_SURFACE_AREA>
86.010002

>  <JCHEM_REFRACTIVITY>
96.842201

>  <JCHEM_ROTATABLE_BOND_COUNT>
10

>  <JCHEM_RULE_OF_FIVE>
1

>  <ALOGPS_SOLUBILITY>
3.86e-02 g/l

>  <JCHEM_TRADITIONAL_IUPAC>
nizatidine

>  <JCHEM_VEBER_RULE>
0

>  <DRUGBANK_ID>
DB00585

>  <DRUG_GROUPS>
approved

>  <GENERIC_NAME>
Nizatidine

>  <SYNONYMS>
Nizatidina; Nizatidine; Nizatidinum

>  <BRANDS>
Acinon; Axid; Tazac

$$$$
Diclofenac
 OpenBabel02121510022D

 19 20  0  0  0  0  0  0  0  0999 V2000
    4.5080   -1.2870    0.0000 Cl  0  0  0  0  0  0  0  0  0  0  0  0
    1.6500   -1.2870    0.0000 Cl  0  0  0  0  0  0  0  0  0  0  0  0
    2.3640    2.4260    0.0000 O   0  0  0  0  0  0  0  0  0  0  0  0
    3.7940    2.4260    0.0000 O   0  0  0  0  0  0  0  0  0  0  0  0
    3.0790   -0.4620    0.0000 N   0  0  0  0  0  0  0  0  0  0  0  0
    3.7940    0.7760    0.0000 C   0  0  0  0  0  0  0  0  0  0  0  0
    3.7940   -0.0500    0.0000 C   0  0  0  0  0  0  0  0  0  0  0  0
    3.0790    1.1880    0.0000 C   0  0  0  0  0  0  0  0  0  0  0  0
    3.0790   -1.2870    0.0000 C   0  0  0  0  0  0  0  0  0  0  0  0
    4.5080    1.1880    0.0000 C   0  0  0  0  0  0  0  0  0  0  0  0
    4.5080   -0.4620    0.0000 C   0  0  0  0  0  0  0  0  0  0  0  0
    5.2220    0.7760    0.0000 C   0  0  0  0  0  0  0  0  0  0  0  0
    5.2220   -0.0500    0.0000 C   0  0  0  0  0  0  0  0  0  0  0  0
    3.7940   -1.7000    0.0000 C   0  0  0  0  0  0  0  0  0  0  0  0
    2.3640   -1.7000    0.0000 C   0  0  0  0  0  0  0  0  0  0  0  0
    3.0790    2.0130    0.0000 C   0  0  0  0  0  0  0  0  0  0  0  0
    3.7940   -2.5250    0.0000 C   0  0  0  0  0  0  0  0  0  0  0  0
    2.3640   -2.5250    0.0000 C   0  0  0  0  0  0  0  0  0  0  0  0
    3.0790   -2.9370    0.0000 C   0  0  0  0  0  0  0  0  0  0  0  0
  1 14  1  0  0  0  0
  2 15  1  0  0  0  0
  3 16  1  0  0  0  0
  4 16  2  0  0  0  0
  5  7  1  0  0  0  0
  5  9  1  0  0  0  0
  6  7  2  0  0  0  0
  6  8  1  0  0  0  0
  6 10  1  0  0  0  0
  7 11  1  0  0  0  0
  8 16  1  0  0  0  0
  9 14  2  0  0  0  0
  9 15  1  0  0  0  0
 10 12  2  0  0  0  0
 11 13  2  0  0  0  0
 12 13  1  0  0  0  0
 14 17  1  0  0  0  0
 15 18  2  0  0  0  0
 17 19  2  0  0  0  0
 18 19  1  0  0  0  0
M  END
>  <DATABASE_ID>
DB00586

>  <DATABASE_NAME>
drugbank

>  <SMILES>
Clc1cccc(Cl)c1Nc1ccccc1CC(O)=O

>  <INCHI_IDENTIFIER>
InChI=1S/C14H11Cl2NO2/c15-10-5-3-6-11(16)14(10)17-12-7-2-1-4-9(12)8-13(18)19/h1-7,17H,8H2,(H,18,19)

>  <INCHI_KEY>
InChIKey=DCOPUUMXTXDBNB-UHFFFAOYSA-N

>  <JCHEM_ACCEPTOR_COUNT>
3

>  <JCHEM_AVERAGE_POLARIZABILITY>
27.931679

>  <JCHEM_BIOAVAILABILITY>
1

>  <JCHEM_DONOR_COUNT>
2

>  <JCHEM_EXACT_MASS>
295.01669

>  <JCHEM_FORMAL_CHARGE>
0

>  <JCHEM_FORMULA>
C14H11Cl2NO2

>  <JCHEM_GHOSE_FILTER>
1

>  <JCHEM_IUPAC>
2-{2-[(2,6-dichlorophenyl)amino]phenyl}acetic acid

>  <ALOGPS_LOGP>
4.98

>  <JCHEM_LOGP>
4.2590094

>  <ALOGPS_LOGS>
-4.8200002

>  <JCHEM_MASS>
296.14899

>  <JCHEM_MDDR_LIKE_RULE>
0

>  <JCHEM_NUMBER_OF_RINGS>
2

>  <JCHEM_PHYSIOLOGICAL_CHARGE>
-1

>  <JCHEM_PKA>
16.401875

>  <JCHEM_PKA_STRONGEST_ACIDIC>
3.995652

>  <JCHEM_PKA_STRONGEST_BASIC>
-2.0760498

>  <JCHEM_POLAR_SURFACE_AREA>
49.330002

>  <JCHEM_REFRACTIVITY>
75.461403

>  <JCHEM_ROTATABLE_BOND_COUNT>
4

>  <JCHEM_RULE_OF_FIVE>
1

>  <ALOGPS_SOLUBILITY>
4.47e-03 g/l

>  <JCHEM_TRADITIONAL_IUPAC>
diclofenac

>  <JCHEM_VEBER_RULE>
0

>  <DRUGBANK_ID>
DB00586

>  <DRUG_GROUPS>
approved

>  <GENERIC_NAME>
Diclofenac

>  <SYNONYMS>
Diclofenac Acid

>  <BRANDS>
Aclonac; Allvoran; CAMBIA; Cataflam; Dyloject; Ecofenac; Effekton; Flector; Nu-Diclo; Pennsaid; Primofenac; Prophenatin; Rhumalgan; Solaraze; Voltaren; Voltaren Emulgel; Voltarol; Zipsor; Zorvolex

>  <SALTS>
Diclofenac potassium; Diclofenac sodium

$$$$
Doxazosin
 OpenBabel02121510022D

 33 37  0  0  1  0  0  0  0  0999 V2000
    3.8490    1.5710    0.0000 O   0  0  0  0  0  0  0  0  0  0  0  0
    3.8490   -0.0780    0.0000 O   0  0  0  0  0  0  0  0  0  0  0  0
    5.2780    2.3960    0.0000 O   0  0  0  0  0  0  0  0  0  0  0  0
   11.7620    0.3540    0.0000 O   0  0  0  0  0  0  0  0  0  0  0  0
   11.7620   -1.3360    0.0000 O   0  0  0  0  0  0  0  0  0  0  0  0
    5.9920    1.1590    0.0000 N   0  0  0  0  0  0  0  0  0  0  0  0
    7.4210    0.3340    0.0000 N   0  0  0  0  0  0  0  0  0  0  0  0
    8.8500    0.3340    0.0000 N   0  0  0  0  0  0  0  0  0  0  0  0
    8.1350   -0.9030    0.0000 N   0  0  0  0  0  0  0  0  0  0  0  0
    8.8500   -2.1410    0.0000 N   0  0  0  0  0  0  0  0  0  0  0  0
    6.7060    1.5710    0.0000 C   0  0  0  0  0  0  0  0  0  0  0  0
    5.9920    0.3340    0.0000 C   0  0  0  0  0  0  0  0  0  0  0  0
    7.4210    1.1590    0.0000 C   0  0  0  0  0  0  0  0  0  0  0  0
    6.7060   -0.0780    0.0000 C   0  0  0  0  0  0  0  0  0  0  0  0
    5.2780    1.5710    0.0000 C   0  0  0  0  0  0  0  0  0  0  0  0
    4.5630    1.1590    0.0000 C   0  0  3  0  0  0  0  0  0  0  0  0
    8.1350   -0.0780    0.0000 C   0  0  0  0  0  0  0  0  0  0  0  0
    4.5630    0.3340    0.0000 C   0  0  0  0  0  0  0  0  0  0  0  0
    3.1350    1.1590    0.0000 C   0  0  0  0  0  0  0  0  0  0  0  0
    9.5640   -0.0780    0.0000 C   0  0  0  0  0  0  0  0  0  0  0  0
    3.1350    0.3340    0.0000 C   0  0  0  0  0  0  0  0  0  0  0  0
    9.5640   -0.9030    0.0000 C   0  0  0  0  0  0  0  0  0  0  0  0
    8.8500   -1.3160    0.0000 C   0  0  0  0  0  0  0  0  0  0  0  0
   10.3010    0.3630    0.0000 C   0  0  0  0  0  0  0  0  0  0  0  0
    2.3970    1.6000    0.0000 C   0  0  0  0  0  0  0  0  0  0  0  0
   10.3010   -1.3440    0.0000 C   0  0  0  0  0  0  0  0  0  0  0  0
    2.3970   -0.1070    0.0000 C   0  0  0  0  0  0  0  0  0  0  0  0
   11.0490   -0.0610    0.0000 C   0  0  0  0  0  0  0  0  0  0  0  0
   11.0490   -0.9200    0.0000 C   0  0  0  0  0  0  0  0  0  0  0  0
    1.6500    1.1760    0.0000 C   0  0  0  0  0  0  0  0  0  0  0  0
    1.6500    0.3170    0.0000 C   0  0  0  0  0  0  0  0  0  0  0  0
   11.7580    1.1790    0.0000 C   0  0  0  0  0  0  0  0  0  0  0  0
   12.4780   -0.9260    0.0000 C   0  0  0  0  0  0  0  0  0  0  0  0
  1 16  1  0  0  0  0
  1 19  1  0  0  0  0
  2 18  1  0  0  0  0
  2 21  1  0  0  0  0
  3 15  2  0  0  0  0
  4 28  1  0  0  0  0
  4 32  1  0  0  0  0
  5 29  1  0  0  0  0
  5 33  1  0  0  0  0
  6 11  1  0  0  0  0
  6 12  1  0  0  0  0
  6 15  1  0  0  0  0
  7 13  1  0  0  0  0
  7 14  1  0  0  0  0
  7 17  1  0  0  0  0
  8 17  2  0  0  0  0
  8 20  1  0  0  0  0
  9 17  1  0  0  0  0
  9 23  2  0  0  0  0
 10 23  1  0  0  0  0
 11 13  1  0  0  0  0
 12 14  1  0  0  0  0
 15 16  1  0  0  0  0
 16 18  1  0  0  0  0
 19 21  2  0  0  0  0
 19 25  1  0  0  0  0
 20 22  2  0  0  0  0
 20 24  1  0  0  0  0
 21 27  1  0  0  0  0
 22 23  1  0  0  0  0
 22 26  1  0  0  0  0
 24 28  2  0  0  0  0
 25 30  2  0  0  0  0
 26 29  2  0  0  0  0
 27 31  2  0  0  0  0
 28 29  1  0  0  0  0
 30 31  1  0  0  0  0
M  END
>  <DATABASE_ID>
DB00590

>  <DATABASE_NAME>
drugbank

>  <SMILES>
O1c2c(OCC1C(=O)N1CCN(CC1)c1nc(N)c3cc(OC)c(OC)cc3n1)cccc2

>  <INCHI_IDENTIFIER>
InChI=1S/C23H25N5O5/c1-30-18-11-14-15(12-19(18)31-2)25-23(26-21(14)24)28-9-7-27(8-10-28)22(29)20-13-32-16-5-3-4-6-17(16)33-20/h3-6,11-12,20H,7-10,13H2,1-2H3,(H2,24,25,26)

>  <INCHI_KEY>
InChIKey=RUZYUOTYCVRMRZ-UHFFFAOYSA-N

>  <JCHEM_ACCEPTOR_COUNT>
9

>  <JCHEM_AVERAGE_POLARIZABILITY>
46.625805

>  <JCHEM_BIOAVAILABILITY>
1

>  <JCHEM_DONOR_COUNT>
1

>  <JCHEM_EXACT_MASS>
451.18558

>  <JCHEM_FORMAL_CHARGE>
0

>  <JCHEM_FORMULA>
C23H25N5O5

>  <JCHEM_GHOSE_FILTER>
1

>  <JCHEM_IUPAC>
2-{4-[(2,3-dihydro-1,4-benzodioxin-2-yl)carbonyl]piperazin-1-yl}-6,7-dimethoxyquinazolin-4-amine

>  <ALOGPS_LOGP>
2.53

>  <JCHEM_LOGP>
2.1357591

>  <ALOGPS_LOGS>
-2.76

>  <JCHEM_MASS>
451.4751

>  <JCHEM_MDDR_LIKE_RULE>
0

>  <JCHEM_NUMBER_OF_RINGS>
5

>  <JCHEM_PHYSIOLOGICAL_CHARGE>
1

>  <JCHEM_PKA_STRONGEST_ACIDIC>
12.670158

>  <JCHEM_PKA_STRONGEST_BASIC>
7.2429452

>  <JCHEM_POLAR_SURFACE_AREA>
112.27

>  <JCHEM_REFRACTIVITY>
121.6383

>  <JCHEM_ROTATABLE_BOND_COUNT>
4

>  <JCHEM_RULE_OF_FIVE>
1

>  <ALOGPS_SOLUBILITY>
7.90e-01 g/l

>  <JCHEM_TRADITIONAL_IUPAC>
doxazosin

>  <JCHEM_VEBER_RULE>
0

>  <DRUGBANK_ID>
DB00590

>  <DRUG_GROUPS>
approved

>  <GENERIC_NAME>
Doxazosin

>  <BRANDS>
Alfadil; Cardenalin; Cardular; Cardura; Cardura XL; Cardura-1; Cardura-2; Cardura-4; Carduran; Diblocin; Normothen; Supressin

$$$$
Piperazine
 OpenBabel02121510022D

  6  6  0  0  0  0  0  0  0  0999 V2000
    2.3640   -0.8250    0.0000 N   0  0  0  0  0  0  0  0  0  0  0  0
    2.3640    0.8250    0.0000 N   0  0  0  0  0  0  0  0  0  0  0  0
    3.0790   -0.4120    0.0000 C   0  0  0  0  0  0  0  0  0  0  0  0
    1.6500   -0.4120    0.0000 C   0  0  0  0  0  0  0  0  0  0  0  0
    3.0790    0.4120    0.0000 C   0  0  0  0  0  0  0  0  0  0  0  0
    1.6500    0.4120    0.0000 C   0  0  0  0  0  0  0  0  0  0  0  0
  1  3  1  0  0  0  0
  1  4  1  0  0  0  0
  2  5  1  0  0  0  0
  2  6  1  0  0  0  0
  3  5  1  0  0  0  0
  4  6  1  0  0  0  0
M  END
>  <DATABASE_ID>
DB00592

>  <DATABASE_NAME>
drugbank

>  <SMILES>
N1CCNCC1

>  <INCHI_IDENTIFIER>
InChI=1S/C4H10N2/c1-2-6-4-3-5-1/h5-6H,1-4H2

>  <INCHI_KEY>
InChIKey=GLUUGHFHXGJENI-UHFFFAOYSA-N

>  <JCHEM_ACCEPTOR_COUNT>
2

>  <JCHEM_AVERAGE_POLARIZABILITY>
9.9732733

>  <JCHEM_BIOAVAILABILITY>
1

>  <JCHEM_DONOR_COUNT>
2

>  <JCHEM_EXACT_MASS>
86.084396

>  <JCHEM_FORMAL_CHARGE>
0

>  <JCHEM_FORMULA>
C4H10N2

>  <JCHEM_GHOSE_FILTER>
0

>  <JCHEM_IUPAC>
piperazine

>  <ALOGPS_LOGP>
-1.16

>  <JCHEM_LOGP>
-0.72880685

>  <ALOGPS_LOGS>
0.63

>  <JCHEM_MASS>
86.135597

>  <JCHEM_MDDR_LIKE_RULE>
0

>  <JCHEM_NUMBER_OF_RINGS>
1

>  <JCHEM_PHYSIOLOGICAL_CHARGE>
1

>  <JCHEM_PKA_STRONGEST_BASIC>
9.5592451

>  <JCHEM_POLAR_SURFACE_AREA>
24.059999

>  <JCHEM_REFRACTIVITY>
25.448799

>  <JCHEM_ROTATABLE_BOND_COUNT>
0

>  <JCHEM_RULE_OF_FIVE>
1

>  <ALOGPS_SOLUBILITY>
3.71e+02 g/l

>  <JCHEM_TRADITIONAL_IUPAC>
piperazine

>  <JCHEM_VEBER_RULE>
1

>  <DRUGBANK_ID>
DB00592

>  <DRUG_GROUPS>
approved

>  <GENERIC_NAME>
Piperazine

>  <SYNONYMS>
Piperazidine; Piperazin

>  <BRANDS>
Antepar; Uvilon; Vermidol; Vermizine

>  <SALTS>
Piperazine citrate; Piperazine hexahydrate; Piperazine hydrate

$$$$
Ethosuximide
 OpenBabel02121510022D

 10 10  0  0  1  0  0  0  0  0999 V2000
    4.5540   -0.6800    0.0000 O   0  0  0  0  0  0  0  0  0  0  0  0
    1.6500   -0.6800    0.0000 O   0  0  0  0  0  0  0  0  0  0  0  0
    3.1020   -0.9100    0.0000 N   0  0  0  0  0  0  0  0  0  0  0  0
    3.5150    0.3600    0.0000 C   0  0  3  0  0  0  0  0  0  0  0  0
    2.6900    0.3600    0.0000 C   0  0  0  0  0  0  0  0  0  0  0  0
    4.2990    0.6150    0.0000 C   0  0  0  0  0  0  0  0  0  0  0  0
    3.7700   -0.4250    0.0000 C   0  0  0  0  0  0  0  0  0  0  0  0
    3.5150    1.1850    0.0000 C   0  0  0  0  0  0  0  0  0  0  0  0
    2.4350   -0.4250    0.0000 C   0  0  0  0  0  0  0  0  0  0  0  0
    4.4710    1.4220    0.0000 C   0  0  0  0  0  0  0  0  0  0  0  0
  1  7  2  0  0  0  0
  2  9  2  0  0  0  0
  3  7  1  0  0  0  0
  3  9  1  0  0  0  0
  4  5  1  0  0  0  0
  4  6  1  0  0  0  0
  4  7  1  0  0  0  0
  4  8  1  0  0  0  0
  5  9  1  0  0  0  0
  6 10  1  0  0  0  0
M  END
>  <DATABASE_ID>
DB00593

>  <DATABASE_NAME>
drugbank

>  <SMILES>
O=C1NC(=O)CC1(CC)C

>  <INCHI_IDENTIFIER>
InChI=1S/C7H11NO2/c1-3-7(2)4-5(9)8-6(7)10/h3-4H2,1-2H3,(H,8,9,10)

>  <INCHI_KEY>
InChIKey=HAPOVYFOVVWLRS-UHFFFAOYSA-N

>  <JCHEM_ACCEPTOR_COUNT>
2

>  <JCHEM_AVERAGE_POLARIZABILITY>
14.449275

>  <JCHEM_BIOAVAILABILITY>
1

>  <JCHEM_DONOR_COUNT>
1

>  <JCHEM_EXACT_MASS>
141.07898

>  <JCHEM_FORMAL_CHARGE>
0

>  <JCHEM_FORMULA>
C7H11NO2

>  <JCHEM_GHOSE_FILTER>
0

>  <JCHEM_IUPAC>
3-ethyl-3-methylpyrrolidine-2,5-dione

>  <ALOGPS_LOGP>
0.1

>  <JCHEM_LOGP>
0.5500977

>  <ALOGPS_LOGS>
-0.15000001

>  <JCHEM_MASS>
141.16769

>  <JCHEM_MDDR_LIKE_RULE>
0

>  <JCHEM_NUMBER_OF_RINGS>
1

>  <JCHEM_PHYSIOLOGICAL_CHARGE>
0

>  <JCHEM_PKA_STRONGEST_ACIDIC>
10.726963

>  <JCHEM_PKA_STRONGEST_BASIC>
-6.6013889

>  <JCHEM_POLAR_SURFACE_AREA>
46.169998

>  <JCHEM_REFRACTIVITY>
35.957901

>  <JCHEM_ROTATABLE_BOND_COUNT>
1

>  <JCHEM_RULE_OF_FIVE>
1

>  <ALOGPS_SOLUBILITY>
1.01e+02 g/l

>  <JCHEM_TRADITIONAL_IUPAC>
ethosuximide

>  <JCHEM_VEBER_RULE>
0

>  <DRUGBANK_ID>
DB00593

>  <DRUG_GROUPS>
approved

>  <GENERIC_NAME>
Ethosuximide

>  <SYNONYMS>
(±)-2-ethyl-2-methylsuccinimide; 2-ethyl-2-methylsuccinimide; 3-ethyl-3-methyl-2,5-pyrrolidinedione; Atysmal; Ethosuximid; Ethosuximidum; Etosuximida; Thilopemal; γ-ethyl-γ-methyl-succinimide

>  <BRANDS>
Emeside; Ethymal; Etoxin; Petimid; Petinimid; Petnidan; Suxilep; Suxinutin; Zarondan; Zarontin

$$$$
Amiloride
 OpenBabel02121510022D

 15 15  0  0  0  0  0  0  0  0999 V2000
    6.3800   -0.0780    0.0000 Cl  0  0  0  0  0  0  0  0  0  0  0  0
    2.8080   -0.4910    0.0000 O   0  0  0  0  0  0  0  0  0  0  0  0
    4.9510   -1.7280    0.0000 N   0  0  0  0  0  0  0  0  0  0  0  0
    4.9510   -0.0780    0.0000 N   0  0  0  0  0  0  0  0  0  0  0  0
    3.5220   -1.7280    0.0000 N   0  0  0  0  0  0  0  0  0  0  0  0
    3.5220    0.7470    0.0000 N   0  0  0  0  0  0  0  0  0  0  0  0
    6.3800   -1.7280    0.0000 N   0  0  0  0  0  0  0  0  0  0  0  0
    2.8080    1.9840    0.0000 N   0  0  0  0  0  0  0  0  0  0  0  0
    2.0930    0.7470    0.0000 N   0  0  0  0  0  0  0  0  0  0  0  0
    4.2360   -0.4910    0.0000 C   0  0  0  0  0  0  0  0  0  0  0  0
    4.2360   -1.3160    0.0000 C   0  0  0  0  0  0  0  0  0  0  0  0
    5.6660   -1.3160    0.0000 C   0  0  0  0  0  0  0  0  0  0  0  0
    5.6660   -0.4910    0.0000 C   0  0  0  0  0  0  0  0  0  0  0  0
    3.5220   -0.0780    0.0000 C   0  0  0  0  0  0  0  0  0  0  0  0
    2.8080    1.1590    0.0000 C   0  0  0  0  0  0  0  0  0  0  0  0
  1 13  1  0  0  0  0
  2 14  2  0  0  0  0
  3 11  2  0  0  0  0
  3 12  1  0  0  0  0
  4 10  2  0  0  0  0
  4 13  1  0  0  0  0
  5 11  1  0  0  0  0
  6 14  1  0  0  0  0
  6 15  2  0  0  0  0
  7 12  1  0  0  0  0
  8 15  1  0  0  0  0
  9 15  1  0  0  0  0
 10 11  1  0  0  0  0
 10 14  1  0  0  0  0
 12 13  2  0  0  0  0
M  END
>  <DATABASE_ID>
DB00594

>  <DATABASE_NAME>
drugbank

>  <SMILES>
Clc1nc(C(=O)N=C(N)N)c(nc1N)N

>  <INCHI_IDENTIFIER>
InChI=1S/C6H8ClN7O/c7-2-4(9)13-3(8)1(12-2)5(15)14-6(10)11/h(H4,8,9,13)(H4,10,11,14,15)

>  <INCHI_KEY>
InChIKey=XSDQTOBWRPYKKA-UHFFFAOYSA-N

>  <JCHEM_ACCEPTOR_COUNT>
8

>  <JCHEM_AVERAGE_POLARIZABILITY>
19.992918

>  <JCHEM_BIOAVAILABILITY>
1

>  <JCHEM_DONOR_COUNT>
4

>  <JCHEM_EXACT_MASS>
229.04788

>  <JCHEM_FORMAL_CHARGE>
0

>  <JCHEM_FORMULA>
C6H8ClN7O

>  <JCHEM_GHOSE_FILTER>
0

>  <JCHEM_IUPAC>
3,5-diamino-6-chloro-N-(diaminomethylidene)pyrazine-2-carboxamide

>  <ALOGPS_LOGP>
-0.72000003

>  <JCHEM_LOGP>
-0.89036912

>  <ALOGPS_LOGS>
-2.27

>  <JCHEM_MASS>
229.627

>  <JCHEM_MDDR_LIKE_RULE>
0

>  <JCHEM_NUMBER_OF_RINGS>
1

>  <JCHEM_PHYSIOLOGICAL_CHARGE>
0

>  <JCHEM_PKA>
17.691858

>  <JCHEM_PKA_STRONGEST_ACIDIC>
16.458862

>  <JCHEM_PKA_STRONGEST_BASIC>
3.285754

>  <JCHEM_POLAR_SURFACE_AREA>
159.28999

>  <JCHEM_REFRACTIVITY>
56.6884

>  <JCHEM_ROTATABLE_BOND_COUNT>
1

>  <JCHEM_RULE_OF_FIVE>
1

>  <ALOGPS_SOLUBILITY>
1.22e+00 g/l

>  <JCHEM_TRADITIONAL_IUPAC>
amiloride

>  <JCHEM_VEBER_RULE>
0

>  <DRUGBANK_ID>
DB00594

>  <DRUG_GROUPS>
approved

>  <GENERIC_NAME>
Amiloride

>  <SYNONYMS>
Amilorid; Amilorida; Amiloridum; Amipramidin; Amipramidine; Amyloride

>  <BRANDS>
Arumil; Diurex; Kaluril; Midamor; Modamide; Moduret; Moduretic

>  <SALTS>
Amiloride Hydrochloride

$$$$
Labetalol
 OpenBabel02121510022D

 24 25  0  0  1  0  0  0  0  0999 V2000
    5.6660    1.1880    0.0000 O   0  0  0  0  0  0  0  0  0  0  0  0
    2.0930    2.4260    0.0000 O   0  0  0  0  0  0  0  0  0  0  0  0
    2.8080    3.6630    0.0000 O   0  0  0  0  0  0  0  0  0  0  0  0
    5.6660   -0.4620    0.0000 N   0  0  0  0  0  0  0  0  0  0  0  0
    4.2360    3.6630    0.0000 N   0  0  0  0  0  0  0  0  0  0  0  0
    5.6660   -1.2870    0.0000 C   0  0  3  0  0  0  0  0  0  0  0  0
    6.3800   -1.7000    0.0000 C   0  0  0  0  0  0  0  0  0  0  0  0
    4.9510   -0.0500    0.0000 C   0  0  0  0  0  0  0  0  0  0  0  0
    6.3800   -2.5250    0.0000 C   0  0  0  0  0  0  0  0  0  0  0  0
    4.9510    0.7760    0.0000 C   0  0  3  0  0  0  0  0  0  0  0  0
    4.9510   -1.7000    0.0000 C   0  0  0  0  0  0  0  0  0  0  0  0
    4.2360    1.1880    0.0000 C   0  0  0  0  0  0  0  0  0  0  0  0
    7.0940   -2.9370    0.0000 C   0  0  0  0  0  0  0  0  0  0  0  0
    4.2360    2.0130    0.0000 C   0  0  0  0  0  0  0  0  0  0  0  0
    3.5220    0.7760    0.0000 C   0  0  0  0  0  0  0  0  0  0  0  0
    7.0940   -3.7620    0.0000 C   0  0  0  0  0  0  0  0  0  0  0  0
    7.8090   -2.5250    0.0000 C   0  0  0  0  0  0  0  0  0  0  0  0
    3.5220    2.4260    0.0000 C   0  0  0  0  0  0  0  0  0  0  0  0
    2.8080    1.1880    0.0000 C   0  0  0  0  0  0  0  0  0  0  0  0
    2.8080    2.0130    0.0000 C   0  0  0  0  0  0  0  0  0  0  0  0
    7.8090   -4.1750    0.0000 C   0  0  0  0  0  0  0  0  0  0  0  0
    8.5230   -2.9370    0.0000 C   0  0  0  0  0  0  0  0  0  0  0  0
    8.5230   -3.7620    0.0000 C   0  0  0  0  0  0  0  0  0  0  0  0
    3.5220    3.2510    0.0000 C   0  0  0  0  0  0  0  0  0  0  0  0
  1 10  1  0  0  0  0
  2 20  1  0  0  0  0
  3 24  2  0  0  0  0
  4  6  1  0  0  0  0
  4  8  1  0  0  0  0
  5 24  1  0  0  0  0
  6  7  1  0  0  0  0
  6 11  1  0  0  0  0
  7  9  1  0  0  0  0
  8 10  1  0  0  0  0
  9 13  1  0  0  0  0
 10 12  1  0  0  0  0
 12 14  2  0  0  0  0
 12 15  1  0  0  0  0
 13 16  2  0  0  0  0
 13 17  1  0  0  0  0
 14 18  1  0  0  0  0
 15 19  2  0  0  0  0
 16 21  1  0  0  0  0
 17 22  2  0  0  0  0
 18 20  2  0  0  0  0
 18 24  1  0  0  0  0
 19 20  1  0  0  0  0
 21 23  2  0  0  0  0
 22 23  1  0  0  0  0
M  END
>  <DATABASE_ID>
DB00598

>  <DATABASE_NAME>
drugbank

>  <SMILES>
Oc1ccc(cc1C(=O)N)C(O)CNC(CCc1ccccc1)C

>  <INCHI_IDENTIFIER>
InChI=1S/C19H24N2O3/c1-13(7-8-14-5-3-2-4-6-14)21-12-18(23)15-9-10-17(22)16(11-15)19(20)24/h2-6,9-11,13,18,21-23H,7-8,12H2,1H3,(H2,20,24)

>  <INCHI_KEY>
InChIKey=SGUAFYQXFOLMHL-UHFFFAOYSA-N

>  <JCHEM_ACCEPTOR_COUNT>
4

>  <JCHEM_AVERAGE_POLARIZABILITY>
36.834568

>  <JCHEM_BIOAVAILABILITY>
1

>  <JCHEM_DONOR_COUNT>
4

>  <JCHEM_EXACT_MASS>
328.17868

>  <JCHEM_FORMAL_CHARGE>
0

>  <JCHEM_FORMULA>
C19H24N2O3

>  <JCHEM_GHOSE_FILTER>
1

>  <JCHEM_IUPAC>
2-hydroxy-5-{1-hydroxy-2-[(4-phenylbutan-2-yl)amino]ethyl}benzamide

>  <ALOGPS_LOGP>
1.73

>  <JCHEM_LOGP>
1.8865051

>  <ALOGPS_LOGS>
-4.75

>  <JCHEM_MASS>
328.40549

>  <JCHEM_MDDR_LIKE_RULE>
0

>  <JCHEM_NUMBER_OF_RINGS>
2

>  <JCHEM_PHYSIOLOGICAL_CHARGE>
1

>  <JCHEM_PKA>
14.107055

>  <JCHEM_PKA_STRONGEST_ACIDIC>
8.0495968

>  <JCHEM_PKA_STRONGEST_BASIC>
9.8007803

>  <JCHEM_POLAR_SURFACE_AREA>
95.580002

>  <JCHEM_REFRACTIVITY>
94.715202

>  <JCHEM_ROTATABLE_BOND_COUNT>
8

>  <JCHEM_RULE_OF_FIVE>
1

>  <ALOGPS_SOLUBILITY>
5.78e-03 g/l

>  <JCHEM_TRADITIONAL_IUPAC>
labetalol

>  <JCHEM_VEBER_RULE>
0

>  <DRUGBANK_ID>
DB00598

>  <DRUG_GROUPS>
approved

>  <GENERIC_NAME>
Labetalol

>  <SYNONYMS>
Labetalolum; Labetolol

>  <BRANDS>
Albetol; Latol; Normadate; Normodyne; Trandate

>  <SALTS>
Labetalol Hydrochloride

$$$$
Linezolid
 OpenBabel02121510022D

 24 26  0  0  1  0  0  0  0  0999 V2000
    2.0880   -2.0560    0.0000 F   0  0  0  0  0  0  0  0  0  0  0  0
    3.9300    1.6890    0.0000 O   0  0  0  0  0  0  0  0  0  0  0  0
    3.5170   -4.5310    0.0000 O   0  0  0  0  0  0  0  0  0  0  0  0
    4.9690    0.6490    0.0000 O   0  0  0  0  0  0  0  0  0  0  0  0
    1.6500    3.6910    0.0000 O   0  0  0  0  0  0  0  0  0  0  0  0
    3.5170    0.4190    0.0000 N   0  0  0  0  0  0  0  0  0  0  0  0
    3.5170   -2.8810    0.0000 N   0  0  0  0  0  0  0  0  0  0  0  0
    2.9550    3.1100    0.0000 N   0  0  0  0  0  0  0  0  0  0  0  0
    3.1050    1.6890    0.0000 C   0  0  2  0  0  0  0  0  0  0  0  0
    2.8500    0.9040    0.0000 C   0  0  0  0  0  0  0  0  0  0  0  0
    4.2320   -3.2930    0.0000 C   0  0  0  0  0  0  0  0  0  0  0  0
    2.8030   -3.2930    0.0000 C   0  0  0  0  0  0  0  0  0  0  0  0
    3.5170   -0.4060    0.0000 C   0  0  0  0  0  0  0  0  0  0  0  0
    2.6200    2.3560    0.0000 C   0  0  0  0  0  0  0  0  0  0  0  0
    3.5170   -2.0560    0.0000 C   0  0  0  0  0  0  0  0  0  0  0  0
    4.2320   -4.1180    0.0000 C   0  0  0  0  0  0  0  0  0  0  0  0
    2.8030   -4.1180    0.0000 C   0  0  0  0  0  0  0  0  0  0  0  0
    4.1850    0.9040    0.0000 C   0  0  0  0  0  0  0  0  0  0  0  0
    2.8030   -0.8180    0.0000 C   0  0  0  0  0  0  0  0  0  0  0  0
    4.2320   -0.8180    0.0000 C   0  0  0  0  0  0  0  0  0  0  0  0
    2.8030   -1.6430    0.0000 C   0  0  0  0  0  0  0  0  0  0  0  0
    4.2320   -1.6430    0.0000 C   0  0  0  0  0  0  0  0  0  0  0  0
    2.4700    3.7770    0.0000 C   0  0  0  0  0  0  0  0  0  0  0  0
    2.8060    4.5310    0.0000 C   0  0  0  0  0  0  0  0  0  0  0  0
  1 21  1  0  0  0  0
  2  9  1  0  0  0  0
  2 18  1  0  0  0  0
  3 16  1  0  0  0  0
  3 17  1  0  0  0  0
  4 18  2  0  0  0  0
  5 23  2  0  0  0  0
  6 10  1  0  0  0  0
  6 13  1  0  0  0  0
  6 18  1  0  0  0  0
  7 11  1  0  0  0  0
  7 12  1  0  0  0  0
  7 15  1  0  0  0  0
  8 14  1  0  0  0  0
  8 23  1  0  0  0  0
  9 10  1  0  0  0  0
  9 14  1  6  0  0  0
 11 16  1  0  0  0  0
 12 17  1  0  0  0  0
 13 19  1  0  0  0  0
 13 20  2  0  0  0  0
 15 21  1  0  0  0  0
 15 22  2  0  0  0  0
 19 21  2  0  0  0  0
 20 22  1  0  0  0  0
 23 24  1  0  0  0  0
M  END
>  <DATABASE_ID>
DB00601

>  <DATABASE_NAME>
drugbank

>  <SMILES>
Fc1cc(N2C[C@@H](OC2=O)CNC(=O)C)ccc1N1CCOCC1

>  <INCHI_IDENTIFIER>
InChI=1S/C16H20FN3O4/c1-11(21)18-9-13-10-20(16(22)24-13)12-2-3-15(14(17)8-12)19-4-6-23-7-5-19/h2-3,8,13H,4-7,9-10H2,1H3,(H,18,21)/t13-/m0/s1

>  <INCHI_KEY>
InChIKey=TYZROVQLWOKYKF-ZDUSSCGKSA-N

>  <JCHEM_ACCEPTOR_COUNT>
5

>  <JCHEM_AVERAGE_POLARIZABILITY>
34.056244

>  <JCHEM_BIOAVAILABILITY>
1

>  <JCHEM_DONOR_COUNT>
1

>  <JCHEM_EXACT_MASS>
337.1438

>  <JCHEM_FORMAL_CHARGE>
0

>  <JCHEM_FORMULA>
C16H20FN3O4

>  <JCHEM_GHOSE_FILTER>
1

>  <JCHEM_IUPAC>
N-{[(5S)-3-[3-fluoro-4-(morpholin-4-yl)phenyl]-2-oxo-1,3-oxazolidin-5-yl]methyl}acetamide

>  <ALOGPS_LOGP>
0.61000001

>  <JCHEM_LOGP>
0.63666368

>  <ALOGPS_LOGS>
-2.3699999

>  <JCHEM_MASS>
337.3461

>  <JCHEM_MDDR_LIKE_RULE>
0

>  <JCHEM_NUMBER_OF_RINGS>
3

>  <JCHEM_PHYSIOLOGICAL_CHARGE>
0

>  <JCHEM_PKA_STRONGEST_ACIDIC>
14.453722

>  <JCHEM_PKA_STRONGEST_BASIC>
-0.66008908

>  <JCHEM_POLAR_SURFACE_AREA>
71.110001

>  <JCHEM_REFRACTIVITY>
84.4748

>  <JCHEM_ROTATABLE_BOND_COUNT>
4

>  <JCHEM_RULE_OF_FIVE>
1

>  <ALOGPS_SOLUBILITY>
1.44e+00 g/l

>  <JCHEM_TRADITIONAL_IUPAC>
linezolid

>  <JCHEM_VEBER_RULE>
0

>  <DRUGBANK_ID>
DB00601

>  <DRUG_GROUPS>
approved; investigational

>  <GENERIC_NAME>
Linezolid

>  <SYNONYMS>
Linezolid; Linezolid; Linezolide; Linezolidum

>  <BRANDS>
Antizolid; Linosept; Linozid; Lizbid; Lizemox; Lizolid; Xolid; Zenix; Zizolid; Zodlin; Zolinid; Zyvox; Zyvoxam; Zyvoxid

$$$$
Ivermectin
 OpenBabel02121510022D

123135  0  0  1  0  0  0  0  0999 V2000
    2.3670   -7.1900    0.0000 C   0  0  0  0  0  0  0  0  0  0  0  0
    2.4810   -6.3730    0.0000 O   0  0  0  0  0  0  0  0  0  0  0  0
    1.8290   -5.8660    0.0000 C   0  0  1  0  0  0  0  0  0  0  0  0
    1.9420   -5.0490    0.0000 C   0  0  0  0  0  0  0  0  0  0  0  0
    1.2910   -4.5420    0.0000 C   0  0  1  0  0  0  0  0  0  0  0  0
    0.5270   -4.8530    0.0000 O   0  0  0  0  0  0  0  0  0  0  0  0
    0.4140   -5.6700    0.0000 C   0  0  1  0  0  0  0  0  0  0  0  0
   -0.3500   -5.9810    0.0000 C   0  0  0  0  0  0  0  0  0  0  0  0
    1.0650   -6.1770    0.0000 C   0  0  2  0  0  0  0  0  0  0  0  0
    0.9520   -6.9940    0.0000 O   0  0  0  0  0  0  0  0  0  0  0  0
    1.4040   -3.7250    0.0000 O   0  0  0  0  0  0  0  0  0  0  0  0
    0.7530   -3.2180    0.0000 C   0  0  1  0  0  0  0  0  0  0  0  0
   -0.0110   -3.5290    0.0000 C   0  0  2  0  0  0  0  0  0  0  0  0
   -0.1240   -4.3460    0.0000 C   0  0  0  0  0  0  0  0  0  0  0  0
   -0.6620   -3.0230    0.0000 O   0  0  0  0  0  0  0  0  0  0  0  0
   -0.5490   -2.2050    0.0000 C   0  0  2  0  0  0  0  0  0  0  0  0
    0.2150   -1.8950    0.0000 C   0  0  0  0  0  0  0  0  0  0  0  0
    0.8660   -2.4010    0.0000 C   0  0  2  0  0  0  0  0  0  0  0  0
    1.6310   -2.0910    0.0000 O   0  0  0  0  0  0  0  0  0  0  0  0
    2.2820   -2.5970    0.0000 C   0  0  0  0  0  0  0  0  0  0  0  0
   -1.2000   -1.6990    0.0000 O   0  0  0  0  0  0  0  0  0  0  0  0
   -1.0870   -0.8820    0.0000 C   0  0  1  0  0  0  0  0  0  0  0  0
   -1.7380   -0.3750    0.0000 C   0  0  1  0  0  0  0  0  0  0  0  0
   -2.5020   -0.6860    0.0000 C   0  0  0  0  0  0  0  0  0  0  0  0
   -1.6250    0.4420    0.0000 C   0  0  0  0  0  0  0  0  0  0  0  0
   -2.2760    0.9490    0.0000 C   0  0  0  0  0  0  0  0  0  0  0  0
   -2.1630    1.7660    0.0000 C   0  0  0  0  0  0  0  0  0  0  0  0
   -2.8140    2.2730    0.0000 C   0  0  0  0  0  0  0  0  0  0  0  0
   -3.6370    2.2130    0.0000 C   0  0  0  0  0  0  0  0  0  0  0  0
   -3.9480    2.9780    0.0000 O   0  0  0  0  0  0  0  0  0  0  0  0
   -3.3170    3.5090    0.0000 C   0  0  2  0  0  0  0  0  0  0  0  0
   -3.2900    4.3340    0.0000 C   0  0  2  0  0  0  0  0  0  0  0  0
   -3.9900    4.7700    0.0000 O   0  0  0  0  0  0  0  0  0  0  0  0
   -2.5620    4.7230    0.0000 C   0  0  0  0  0  0  0  0  0  0  0  0
   -2.5350    5.5470    0.0000 C   0  0  0  0  0  0  0  0  0  0  0  0
   -1.8610    4.2870    0.0000 C   0  0  0  0  0  0  0  0  0  0  0  0
   -1.9370    3.4000    0.0000 C   0  0  1  0  0  0  0  0  0  0  0  0
   -1.2860    2.8940    0.0000 C   0  0  0  0  0  0  0  0  0  0  0  0
   -1.3990    2.0770    0.0000 O   0  0  0  0  0  0  0  0  0  0  0  0
   -0.5210    3.2040    0.0000 O   0  0  0  0  0  0  0  0  0  0  0  0
    0.1300    2.6980    0.0000 C   0  0  1  0  0  0  0  0  0  0  0  0
    0.0170    1.8810    0.0000 C   0  0  0  0  0  0  0  0  0  0  0  0
    0.6680    1.3740    0.0000 C   0  0  1  0  0  0  0  0  0  0  0  0
    0.5550    0.5570    0.0000 C   0  0  0  0  0  0  0  0  0  0  0  0
   -0.2100    0.2460    0.0000 C   0  0  0  0  0  0  0  0  0  0  0  0
   -0.3230   -0.5710    0.0000 C   0  0  0  0  0  0  0  0  0  0  0  0
    0.3280   -1.0780    0.0000 C   0  0  0  0  0  0  0  0  0  0  0  0
    1.4320    1.6850    0.0000 O   0  0  0  0  0  0  0  0  0  0  0  0
    1.5450    2.5020    0.0000 C   0  0  2  0  0  0  0  0  0  0  0  0
    1.6580    3.3190    0.0000 C   0  0  0  0  0  0  0  0  0  0  0  0
    2.4230    3.6300    0.0000 C   0  0  0  0  0  0  0  0  0  0  0  0
    3.0740    3.1230    0.0000 C   0  0  2  0  0  0  0  0  0  0  0  0
    3.8380    3.4340    0.0000 C   0  0  0  0  0  0  0  0  0  0  0  0
    2.9610    2.3060    0.0000 C   0  0  2  0  0  0  0  0  0  0  0  0
    2.1960    1.9950    0.0000 O   0  0  0  0  0  0  0  0  0  0  0  0
    3.6120    1.7990    0.0000 C   0  0  0  0  0  0  0  0  0  0  0  0
    3.4990    0.9820    0.0000 C   0  0  0  0  0  0  0  0  0  0  0  0
    4.3760    2.1100    0.0000 C   0  0  0  0  0  0  0  0  0  0  0  0
    0.8940    3.0080    0.0000 C   0  0  0  0  0  0  0  0  0  0  0  0
   -2.7010    3.0900    0.0000 C   0  0  2  0  0  0  0  0  0  0  0  0
   -2.6140    3.9100    0.0000 O   0  0  0  0  0  0  0  0  0  0  0  0
   18.8440    0.8900    0.0000 C   0  0  0  0  0  0  0  0  0  0  0  0
   18.1930    1.3960    0.0000 C   0  0  0  0  0  0  0  0  0  0  0  0
   17.4290    1.0860    0.0000 C   0  0  1  0  0  0  0  0  0  0  0  0
   17.3160    0.2680    0.0000 C   0  0  0  0  0  0  0  0  0  0  0  0
   16.7780    1.5920    0.0000 C   0  0  1  0  0  0  0  0  0  0  0  0
   16.0130    1.2820    0.0000 O   0  0  0  0  0  0  0  0  0  0  0  0
   15.3620    1.7880    0.0000 C   0  0  2  0  0  0  0  0  0  0  0  0
   15.4750    2.6050    0.0000 C   0  0  0  0  0  0  0  0  0  0  0  0
   16.2400    2.9160    0.0000 C   0  0  0  0  0  0  0  0  0  0  0  0
   16.8910    2.4100    0.0000 C   0  0  2  0  0  0  0  0  0  0  0  0
   17.6550    2.7200    0.0000 C   0  0  0  0  0  0  0  0  0  0  0  0
   14.7110    2.2950    0.0000 C   0  0  0  0  0  0  0  0  0  0  0  0
   13.9470    1.9840    0.0000 C   0  0  2  0  0  0  0  0  0  0  0  0
   13.8340    1.1670    0.0000 C   0  0  0  0  0  0  0  0  0  0  0  0
   14.4850    0.6600    0.0000 C   0  0  1  0  0  0  0  0  0  0  0  0
   14.3720   -0.1570    0.0000 C   0  0  0  0  0  0  0  0  0  0  0  0
   13.6070   -0.4670    0.0000 C   0  0  0  0  0  0  0  0  0  0  0  0
   13.4940   -1.2850    0.0000 C   0  0  0  0  0  0  0  0  0  0  0  0
   14.1450   -1.7910    0.0000 C   0  0  0  0  0  0  0  0  0  0  0  0
   12.7300   -1.5950    0.0000 C   0  0  1  0  0  0  0  0  0  0  0  0
   12.6170   -2.4120    0.0000 O   0  0  0  0  0  0  0  0  0  0  0  0
   11.8520   -2.7230    0.0000 C   0  0  1  0  0  0  0  0  0  0  0  0
   11.7390   -3.5400    0.0000 C   0  0  0  0  0  0  0  0  0  0  0  0
   10.9750   -3.8510    0.0000 C   0  0  2  0  0  0  0  0  0  0  0  0
   10.8620   -4.6680    0.0000 O   0  0  0  0  0  0  0  0  0  0  0  0
   10.0980   -4.9790    0.0000 C   0  0  0  0  0  0  0  0  0  0  0  0
   10.3240   -3.3440    0.0000 C   0  0  1  0  0  0  0  0  0  0  0  0
    9.5600   -3.6550    0.0000 O   0  0  0  0  0  0  0  0  0  0  0  0
    8.9080   -3.1480    0.0000 C   0  0  1  0  0  0  0  0  0  0  0  0
    8.1440   -3.4590    0.0000 C   0  0  0  0  0  0  0  0  0  0  0  0
    7.4930   -2.9520    0.0000 C   0  0  2  0  0  0  0  0  0  0  0  0
    6.7290   -3.2630    0.0000 O   0  0  0  0  0  0  0  0  0  0  0  0
    6.6160   -4.0800    0.0000 C   0  0  0  0  0  0  0  0  0  0  0  0
    7.6060   -2.1350    0.0000 C   0  0  1  0  0  0  0  0  0  0  0  0
    6.9550   -1.6290    0.0000 O   0  0  0  0  0  0  0  0  0  0  0  0
    8.3700   -1.8250    0.0000 C   0  0  2  0  0  0  0  0  0  0  0  0
    8.4840   -1.0070    0.0000 C   0  0  0  0  0  0  0  0  0  0  0  0
    9.0220   -2.3310    0.0000 O   0  0  0  0  0  0  0  0  0  0  0  0
   10.4370   -2.5270    0.0000 C   0  0  2  0  0  0  0  0  0  0  0  0
    9.7860   -2.0210    0.0000 C   0  0  0  0  0  0  0  0  0  0  0  0
   11.2010   -2.2160    0.0000 O   0  0  0  0  0  0  0  0  0  0  0  0
   12.0790   -1.0890    0.0000 C   0  0  1  0  0  0  0  0  0  0  0  0
   11.3140   -1.3990    0.0000 C   0  0  0  0  0  0  0  0  0  0  0  0
   12.1920   -0.2720    0.0000 C   0  0  0  0  0  0  0  0  0  0  0  0
   11.5410    0.2350    0.0000 C   0  0  0  0  0  0  0  0  0  0  0  0
   11.6540    1.0520    0.0000 C   0  0  0  0  0  0  0  0  0  0  0  0
   11.0030    1.5590    0.0000 C   0  0  0  0  0  0  0  0  0  0  0  0
   10.1800    1.5000    0.0000 C   0  0  0  0  0  0  0  0  0  0  0  0
    9.8690    2.2640    0.0000 O   0  0  0  0  0  0  0  0  0  0  0  0
   10.5000    2.7960    0.0000 C   0  0  2  0  0  0  0  0  0  0  0  0
   10.5270    3.6200    0.0000 C   0  0  2  0  0  0  0  0  0  0  0  0
    9.8270    4.0560    0.0000 O   0  0  0  0  0  0  0  0  0  0  0  0
   11.2550    4.0090    0.0000 C   0  0  0  0  0  0  0  0  0  0  0  0
   11.2820    4.8340    0.0000 C   0  0  0  0  0  0  0  0  0  0  0  0
   11.9550    3.5730    0.0000 C   0  0  0  0  0  0  0  0  0  0  0  0
   11.8800    2.6870    0.0000 C   0  0  1  0  0  0  0  0  0  0  0  0
   12.5310    2.1800    0.0000 C   0  0  0  0  0  0  0  0  0  0  0  0
   12.4180    1.3630    0.0000 O   0  0  0  0  0  0  0  0  0  0  0  0
   13.2960    2.4910    0.0000 O   0  0  0  0  0  0  0  0  0  0  0  0
   11.1160    2.3760    0.0000 C   0  0  2  0  0  0  0  0  0  0  0  0
   11.2030    3.1960    0.0000 O   0  0  0  0  0  0  0  0  0  0  0  0
   15.2490    0.9710    0.0000 O   0  0  0  0  0  0  0  0  0  0  0  0
  1  2  1  0  0  0  0
  3  2  1  6  0  0  0
  3  4  1  0  0  0  0
  3  9  1  0  0  0  0
  4  5  1  0  0  0  0
  5  6  1  0  0  0  0
  5 11  1  1  0  0  0
  6  7  1  0  0  0  0
  7  8  1  6  0  0  0
  7  9  1  0  0  0  0
  9 10  1  1  0  0  0
 12 11  1  1  0  0  0
 12 13  1  0  0  0  0
 12 18  1  0  0  0  0
 13 14  1  6  0  0  0
 13 15  1  0  0  0  0
 15 16  1  0  0  0  0
 16 17  1  0  0  0  0
 16 21  1  1  0  0  0
 17 18  1  0  0  0  0
 18 19  1  6  0  0  0
 19 20  1  0  0  0  0
 22 21  1  1  0  0  0
 22 23  1  0  0  0  0
 22 46  1  0  0  0  0
 23 24  1  1  0  0  0
 23 25  1  0  0  0  0
 25 26  2  0  0  0  0
 26 27  1  0  0  0  0
 27 28  2  0  0  0  0
 28 29  1  0  0  0  0
 28 60  1  0  0  0  0
 29 30  1  0  0  0  0
 31 30  1  6  0  0  0
 31 32  1  0  0  0  0
 31 60  1  0  0  0  0
 32 33  1  6  0  0  0
 32 34  1  0  0  0  0
 34 35  1  0  0  0  0
 34 36  2  0  0  0  0
 37 36  1  1  0  0  0
 37 38  1  0  0  0  0
 37 60  1  0  0  0  0
 38 39  2  0  0  0  0
 38 40  1  0  0  0  0
 41 40  1  6  0  0  0
 41 42  1  0  0  0  0
 41 59  1  0  0  0  0
 43 42  1  6  0  0  0
 43 44  1  0  0  0  0
 43 48  1  0  0  0  0
 44 45  1  0  0  0  0
 45 46  2  0  0  0  0
 46 47  1  0  0  0  0
 49 48  1  6  0  0  0
 49 50  1  0  0  0  0
 49 55  1  0  0  0  0
 49 59  1  0  0  0  0
 50 51  1  0  0  0  0
 51 52  1  0  0  0  0
 52 53  1  6  0  0  0
 52 54  1  0  0  0  0
 54 55  1  0  0  0  0
 54 56  1  1  0  0  0
 56 57  1  0  0  0  0
 56 58  1  0  0  0  0
 60 61  1  1  0  0  0
 62 63  1  0  0  0  0
 64 63  1  1  0  0  0
 64 65  1  0  0  0  0
 64 66  1  0  0  0  0
 66 67  1  1  0  0  0
 66 71  1  0  0  0  0
 68 67  1  1  0  0  0
 68 69  1  0  0  0  0
 68 73  1  0  0  0  0
 68123  1  0  0  0  0
 69 70  1  0  0  0  0
 70 71  1  0  0  0  0
 71 72  1  6  0  0  0
 74 73  1  6  0  0  0
 74 75  1  0  0  0  0
 74120  1  0  0  0  0
 76 75  1  6  0  0  0
 76 77  1  0  0  0  0
 76123  1  0  0  0  0
 77 78  1  0  0  0  0
 78 79  2  0  0  0  0
 79 80  1  0  0  0  0
 79 81  1  0  0  0  0
 81 82  1  1  0  0  0
 81103  1  0  0  0  0
 83 82  1  1  0  0  0
 83 84  1  0  0  0  0
 83102  1  0  0  0  0
 84 85  1  0  0  0  0
 85 86  1  6  0  0  0
 85 88  1  0  0  0  0
 86 87  1  0  0  0  0
 88 89  1  1  0  0  0
 88100  1  0  0  0  0
 90 89  1  1  0  0  0
 90 91  1  0  0  0  0
 90 99  1  0  0  0  0
 91 92  1  0  0  0  0
 92 93  1  6  0  0  0
 92 95  1  0  0  0  0
 93 94  1  0  0  0  0
 95 96  1  1  0  0  0
 95 97  1  0  0  0  0
 97 98  1  6  0  0  0
 97 99  1  0  0  0  0
100101  1  6  0  0  0
100102  1  0  0  0  0
103104  1  1  0  0  0
103105  1  0  0  0  0
105106  2  0  0  0  0
106107  1  0  0  0  0
107108  2  0  0  0  0
108109  1  0  0  0  0
108121  1  0  0  0  0
109110  1  0  0  0  0
111110  1  6  0  0  0
111112  1  0  0  0  0
111121  1  0  0  0  0
112113  1  6  0  0  0
112114  1  0  0  0  0
114115  1  0  0  0  0
114116  2  0  0  0  0
117116  1  1  0  0  0
117118  1  0  0  0  0
117121  1  0  0  0  0
118119  2  0  0  0  0
118120  1  0  0  0  0
121122  1  1  0  0  0
M  END
>  <DATABASE_ID>
DB00602

>  <DATABASE_NAME>
drugbank

>  <SMILES>
O1[C@@H]2C[C@@]3(O[C@H](C(C)C)[C@H](CC3)C)O[C@H](C\C=C(/C)\[C@@H](O[C@@H]3O[C@@H](C)[C@H](O[C@@H]4O[C@@H](C)[C@H](O)[C@@H](OC)C4)[C@@H](OC)C3)[C@H](\C=C\C=C\3/CO[C@@H]4[C@H](O)C(=C[C@H]([C@]/34O)C1=O)C)C)C2.O1[C@@H]2C[C@@]3(O[C@H]([C@@H](CC)C)[C@H](CC3)C)O[C@H](C\C=C(/C)\[C@@H](O[C@@H]3O[C@@H](C)[C@H](O[C@@H]4O[C@@H](C)[C@H](O)[C@@H](OC)C4)[C@@H](OC)C3)[C@H](\C=C\C=C\3/CO[C@@H]4[C@H](O)C(=C[C@H]([C@]/34O)C1=O)C)C)C2

>  <INCHI_IDENTIFIER>
InChI=1S/C48H74O14.C47H72O14/c1-11-25(2)43-28(5)17-18-47(62-43)23-34-20-33(61-47)16-15-27(4)42(26(3)13-12-14-32-24-55-45-40(49)29(6)19-35(46(51)58-34)48(32,45)52)59-39-22-37(54-10)44(31(8)57-39)60-38-21-36(53-9)41(50)30(7)56-38;1-24(2)41-27(5)16-17-46(61-41)22-33-19-32(60-46)15-14-26(4)42(25(3)12-11-13-31-23-54-44-39(48)28(6)18-34(45(50)57-33)47(31,44)51)58-38-21-36(53-10)43(30(8)56-38)59-37-20-35(52-9)40(49)29(7)55-37/h12-15,19,25-26,28,30-31,33-45,49-50,52H,11,16-18,20-24H2,1-10H3;11-14,18,24-25,27,29-30,32-44,48-49,51H,15-17,19-23H2,1-10H3/b13-12+,27-15+,32-14+;12-11+,26-14+,31-13+/t25-,26+,28+,30+,31+,33-,34+,35+,36+,37+,38+,39+,40-,41+,42+,43-,44+,45-,47-,48-;25-,27-,29-,30-,32+,33-,34-,35-,36-,37-,38-,39+,40-,41+,42-,43-,44+,46+,47+/m10/s1

>  <INCHI_KEY>
InChIKey=SPBDXSGPUHCETR-CVSKBELMSA-N

>  <JCHEM_ACCEPTOR_COUNT>
13

>  <JCHEM_AVERAGE_POLARIZABILITY>
96.870934

>  <JCHEM_BIOAVAILABILITY>
0

>  <JCHEM_DONOR_COUNT>
3

>  <JCHEM_EXACT_MASS>
1735.0001

>  <JCHEM_FORMAL_CHARGE>
0

>  <JCHEM_FORMULA>
C95H146O28

>  <JCHEM_GHOSE_FILTER>
0

>  <JCHEM_IUPAC>
(1'R,2R,4'S,5S,6R,8'R,12'S,13'S,20'R,21'R,24'S)-21',24'-dihydroxy-12'-{[(2R,4S,5S,6S)-5-{[(2S,4S,5S,6S)-5-hydroxy-4-methoxy-6-methyloxan-2-yl]oxy}-4-methoxy-6-methyloxan-2-yl]oxy}-5,11',13',22'-tetramethyl-6-(propan-2-yl)-3',7',19'-trioxaspiro[oxane-2,6'-tetracyclo[15.6.1.1^{4,8}.0^{20,24}]pentacosane]-10',14',16',22'-tetraen-2'-one; (1'R,2R,4'S,5S,6R,8'R,12'S,13'S,20'R,21'R,24'S)-6-[(2R)-butan-2-yl]-21',24'-dihydroxy-12'-{[(2R,4S,5S,6S)-5-{[(2S,4S,5S,6S)-5-hydroxy-4-methoxy-6-methyloxan-2-yl]oxy}-4-methoxy-6-methyloxan-2-yl]oxy}-5,11',13',22'-tetramethyl-3',7',19'-trioxaspiro[oxane-2,6'-tetracyclo[15.6.1.1^{4,8}.0^{20,24}]pentacosane]-10',14',16',22'-tetraen-2'-one

>  <JCHEM_LOGP>
5.8257456

>  <JCHEM_MASS>
1736.1589

>  <JCHEM_MDDR_LIKE_RULE>
1

>  <JCHEM_NUMBER_OF_RINGS>
14

>  <JCHEM_PHYSIOLOGICAL_CHARGE>
0

>  <JCHEM_PKA>
13.169098

>  <JCHEM_PKA_STRONGEST_ACIDIC>
12.467905

>  <JCHEM_PKA_STRONGEST_BASIC>
-3.4490752

>  <JCHEM_POLAR_SURFACE_AREA>
170.06

>  <JCHEM_REFRACTIVITY>
230.32761

>  <JCHEM_ROTATABLE_BOND_COUNT>
15

>  <JCHEM_RULE_OF_FIVE>
0

>  <JCHEM_TRADITIONAL_IUPAC>
(1'R,2R,4'S,5S,6R,8'R,12'S,13'S,20'R,21'R,24'S)-21',24'-dihydroxy-12'-{[(2R,4S,5S,6S)-5-{[(2S,4S,5S,6S)-5-hydroxy-4-methoxy-6-methyloxan-2-yl]oxy}-4-methoxy-6-methyloxan-2-yl]oxy}-6-isopropyl-5,11',13',22'-tetramethyl-3',7',19'-trioxaspiro[oxane-2,6'-tetracyclo[15.6.1.1^{4,8}.0^{20,24}]pentacosane]-10',14',16',22'-tetraen-2'-one; (1'R,2R,4'S,5S,6R,8'R,12'S,13'S,20'R,21'R,24'S)-6-[(2R)-butan-2-yl]-21',24'-dihydroxy-12'-{[(2R,4S,5S,6S)-5-{[(2S,4S,5S,6S)-5-hydroxy-4-methoxy-6-methyloxan-2-yl]oxy}-4-methoxy-6-methyloxan-2-yl]oxy}-5,11',13',22'-tetramethyl-3',7',19'-trioxaspiro[oxane-2,6'-tetracyclo[15.6.1.1^{4,8}.0^{20,24}]pentacosane]-10',14',16',22'-tetraen-2'-one

>  <JCHEM_VEBER_RULE>
0

>  <DRUGBANK_ID>
DB00602

>  <DRUG_GROUPS>
approved

>  <GENERIC_NAME>
Ivermectin

>  <SYNONYMS>
Ivermectin; Ivermectina; Ivermectine; Ivermectinum

>  <BRANDS>
Ascapil; Detebencil; Ermetin; Gotax; Imectin; Ivectin; Ivera; Ivergot; Ivermec; Ivexterm; Ivori; Kaonol; Kilox; Maikeding; Quanox; Revectina; Scabo; Scavista; Securo; Sklice; Stromectol; Vermectin

$$$$
Medroxyprogesterone Acetate
 OpenBabel02121510022D

 31 34  0  0  1  0  0  0  0  0999 V2000
    1.8040   -0.1140    0.0000 C   0  0  0  0  0  0  0  0  0  0  0  0
    0.3040   -1.0960    0.0000 C   0  0  0  0  0  0  0  0  0  0  0  0
    1.8040    1.2210    0.0000 C   0  0  2  0  0  0  0  0  0  0  0  0
    0.3040    1.3790    0.0000 C   0  0  0  0  0  0  0  0  0  0  0  0
    2.2880    0.5540    0.0000 C   0  0  0  0  0  0  0  0  0  0  0  0
   -1.1240   -0.2710    0.0000 C   0  0  2  0  0  0  0  0  0  0  0  0
   -0.4100    0.9660    0.0000 C   0  0  0  0  0  0  0  0  0  0  0  0
   -0.4100   -1.5090    0.0000 C   0  0  1  0  0  0  0  0  0  0  0  0
   -1.1240   -1.0960    0.0000 C   0  0  0  0  0  0  0  0  0  0  0  0
   -1.8390    0.1410    0.0000 C   0  0  0  0  0  0  0  0  0  0  0  0
   -1.8390   -1.5090    0.0000 C   0  0  0  0  0  0  0  0  0  0  0  0
   -2.5530   -0.2710    0.0000 C   0  0  0  0  0  0  0  0  0  0  0  0
    0.3040   -0.2710    0.0000 C   0  0  2  0  0  0  0  0  0  0  0  0
    0.3040    0.5540    0.0000 H   0  0  0  0  0  0  0  0  0  0  0  0
   -0.4100    0.1410    0.0000 C   0  0  1  0  0  0  0  0  0  0  0  0
   -0.4100   -0.6840    0.0000 H   0  0  0  0  0  0  0  0  0  0  0  0
    1.0190    0.9660    0.0000 C   0  0  2  0  0  0  0  0  0  0  0  0
    1.0190    1.7910    0.0000 C   0  0  0  0  0  0  0  0  0  0  0  0
    1.0190    0.1410    0.0000 C   0  0  1  0  0  0  0  0  0  0  0  0
    1.0190   -0.6840    0.0000 H   0  0  0  0  0  0  0  0  0  0  0  0
   -3.2680   -1.5090    0.0000 O   0  0  0  0  0  0  0  0  0  0  0  0
   -2.5530   -1.0960    0.0000 C   0  0  0  0  0  0  0  0  0  0  0  0
   -1.1240    0.5540    0.0000 C   0  0  0  0  0  0  0  0  0  0  0  0
    2.5180    1.6340    0.0000 O   0  0  0  0  0  0  0  0  0  0  0  0
    1.8040    2.0460    0.0000 C   0  0  0  0  0  0  0  0  0  0  0  0
    1.2200    2.6300    0.0000 C   0  0  0  0  0  0  0  0  0  0  0  0
    2.5180    2.4590    0.0000 O   0  0  0  0  0  0  0  0  0  0  0  0
   -0.4100   -2.3340    0.0000 C   0  0  0  0  0  0  0  0  0  0  0  0
    3.2330    1.2210    0.0000 C   0  0  0  0  0  0  0  0  0  0  0  0
    3.9470    1.6340    0.0000 C   0  0  0  0  0  0  0  0  0  0  0  0
    3.2330    0.3960    0.0000 O   0  0  0  0  0  0  0  0  0  0  0  0
  1  5  1  0  0  0  0
  1 19  1  0  0  0  0
  2  8  1  0  0  0  0
  2 13  1  0  0  0  0
  3  5  1  0  0  0  0
  3 17  1  0  0  0  0
  3 24  1  6  0  0  0
  3 25  1  0  0  0  0
  4  7  1  0  0  0  0
  4 17  1  0  0  0  0
  6  9  1  0  0  0  0
  6 10  1  0  0  0  0
  6 15  1  0  0  0  0
  6 23  1  1  0  0  0
  7 15  1  0  0  0  0
  8  9  1  0  0  0  0
  8 28  1  6  0  0  0
  9 11  2  0  0  0  0
 10 12  1  0  0  0  0
 11 22  1  0  0  0  0
 12 22  1  0  0  0  0
 13 14  1  1  0  0  0
 13 15  1  0  0  0  0
 13 19  1  0  0  0  0
 15 16  1  6  0  0  0
 17 18  1  1  0  0  0
 17 19  1  0  0  0  0
 19 20  1  6  0  0  0
 21 22  2  0  0  0  0
 24 29  1  0  0  0  0
 25 26  1  0  0  0  0
 25 27  2  0  0  0  0
 29 30  1  0  0  0  0
 29 31  2  0  0  0  0
M  END
>  <DATABASE_ID>
DB00603

>  <DATABASE_NAME>
drugbank

>  <SMILES>
O=C1CC[C@@]2([C@@H]3[C@H]([C@@H]4CC[C@](OC(=O)C)(C(=O)C)[C@]4(CC3)C)C[C@@H](C2=C1)C)C

>  <INCHI_IDENTIFIER>
InChI=1S/C24H34O4/c1-14-12-18-19(22(4)9-6-17(27)13-21(14)22)7-10-23(5)20(18)8-11-24(23,15(2)25)28-16(3)26/h13-14,18-20H,6-12H2,1-5H3/t14-,18+,19-,20-,22+,23-,24-/m0/s1

>  <INCHI_KEY>
InChIKey=PSGAAPLEWMOORI-PEINSRQWSA-N

>  <JCHEM_ACCEPTOR_COUNT>
3

>  <JCHEM_AVERAGE_POLARIZABILITY>
44.050266

>  <JCHEM_BIOAVAILABILITY>
1

>  <JCHEM_DONOR_COUNT>
0

>  <JCHEM_EXACT_MASS>
386.2457

>  <JCHEM_FORMAL_CHARGE>
0

>  <JCHEM_FORMULA>
C24H34O4

>  <JCHEM_GHOSE_FILTER>
1

>  <JCHEM_IUPAC>
(1S,2R,8S,10R,11S,14R,15S)-14-acetyl-2,8,15-trimethyl-5-oxotetracyclo[8.7.0.0²,⁷.0¹¹,¹⁵]heptadec-6-en-14-yl acetate

>  <ALOGPS_LOGP>
3.4200001

>  <JCHEM_LOGP>
4.129324

>  <ALOGPS_LOGS>
-5.2399998

>  <JCHEM_MASS>
386.52441

>  <JCHEM_MDDR_LIKE_RULE>
0

>  <JCHEM_NUMBER_OF_RINGS>
4

>  <JCHEM_PHYSIOLOGICAL_CHARGE>
0

>  <JCHEM_PKA>
19.537071

>  <JCHEM_PKA_STRONGEST_ACIDIC>
17.821218

>  <JCHEM_PKA_STRONGEST_BASIC>
-4.9043026

>  <JCHEM_POLAR_SURFACE_AREA>
60.439999

>  <JCHEM_REFRACTIVITY>
107.8054

>  <JCHEM_ROTATABLE_BOND_COUNT>
3

>  <JCHEM_RULE_OF_FIVE>
1

>  <ALOGPS_SOLUBILITY>
2.21e-03 g/l

>  <JCHEM_TRADITIONAL_IUPAC>
provera

>  <JCHEM_VEBER_RULE>
0

>  <DRUGBANK_ID>
DB00603

>  <DRUG_GROUPS>
approved; investigational

>  <GENERIC_NAME>
Medroxyprogesterone Acetate

>  <SYNONYMS>
17-Acetoxy-6α-methylprogesterone; 17α-hydroxy-6α-methylprogesterone acetate; 6-alpha-Methyl-17-alpha-acetoxyprogesterone; 6-alpha-Methyl-17-alpha-hydroxyprogesterone acetate; 6α-Methyl-17-acetoxy progesterone; 6α-Methyl-17α-hydroxyprogesterone acetate; Medroxyacetate progesterone; Medroxyprogesterone 17-acetate; Methylacetoxyprogesterone; Metigestrona; MPA

>  <BRANDS>
Depo-provera; Depo-subq provera 104; Makena; Provera

$$$$
Cisapride
 OpenBabel02121510022D

 32 34  0  0  1  0  0  0  0  0999 V2000
    7.7580   -7.2910    0.0000 C   0  0  0  0  0  0  0  0  0  0  0  0
    8.4730   -6.8780    0.0000 C   0  0  0  0  0  0  0  0  0  0  0  0
    7.0440   -6.8780    0.0000 C   0  0  0  0  0  0  0  0  0  0  0  0
    9.1790   -7.2860    0.0000 N   0  0  0  0  0  0  0  0  0  0  0  0
    7.7580   -8.1160    0.0000 C   0  0  0  0  0  0  0  0  0  0  0  0
    6.3290   -7.2910    0.0000 C   0  0  0  0  0  0  0  0  0  0  0  0
    9.1780   -8.1110    0.0000 C   0  0  1  0  0  0  0  0  0  0  0  0
    7.0440   -8.5280    0.0000 C   0  0  0  0  0  0  0  0  0  0  0  0
    9.8920   -8.5240    0.0000 C   0  0  2  0  0  0  0  0  0  0  0  0
    6.3290   -8.1160    0.0000 C   0  0  0  0  0  0  0  0  0  0  0  0
    9.1770   -9.7610    0.0000 N   0  0  0  0  0  0  0  0  0  0  0  0
    9.8910   -9.3490    0.0000 C   0  0  0  0  0  0  0  0  0  0  0  0
    8.4630   -8.5230    0.0000 C   0  0  0  0  0  0  0  0  0  0  0  0
    8.4730   -6.0530    0.0000 O   0  0  0  0  0  0  0  0  0  0  0  0
    8.4620   -9.3480    0.0000 C   0  0  0  0  0  0  0  0  0  0  0  0
    5.6150   -8.5280    0.0000 N   0  0  0  0  0  0  0  0  0  0  0  0
    7.0440   -9.3530    0.0000 Cl  0  0  0  0  0  0  0  0  0  0  0  0
    7.0440   -6.0530    0.0000 O   0  0  0  0  0  0  0  0  0  0  0  0
   13.4630   -9.7650    0.0000 C   0  0  0  0  0  0  0  0  0  0  0  0
   10.6070   -8.1120    0.0000 O   0  0  0  0  0  0  0  0  0  0  0  0
   12.0340  -10.5890    0.0000 C   0  0  0  0  0  0  0  0  0  0  0  0
   14.1780   -9.3530    0.0000 F   0  0  0  0  0  0  0  0  0  0  0  0
   12.7490   -9.3520    0.0000 C   0  0  0  0  0  0  0  0  0  0  0  0
   13.4630  -10.5900    0.0000 C   0  0  0  0  0  0  0  0  0  0  0  0
   12.0340   -9.7640    0.0000 C   0  0  0  0  0  0  0  0  0  0  0  0
   12.7480  -11.0020    0.0000 C   0  0  0  0  0  0  0  0  0  0  0  0
    9.1760  -10.5860    0.0000 C   0  0  0  0  0  0  0  0  0  0  0  0
    9.8900  -10.9990    0.0000 C   0  0  0  0  0  0  0  0  0  0  0  0
   11.3190  -11.0000    0.0000 O   0  0  0  0  0  0  0  0  0  0  0  0
   10.6050  -10.5870    0.0000 C   0  0  0  0  0  0  0  0  0  0  0  0
    6.3290   -5.6410    0.0000 C   0  0  0  0  0  0  0  0  0  0  0  0
   11.3210   -8.5250    0.0000 C   0  0  0  0  0  0  0  0  0  0  0  0
  1  2  1  0  0  0  0
  1  3  1  0  0  0  0
  1  5  2  0  0  0  0
  2  4  1  0  0  0  0
  2 14  2  0  0  0  0
  3  6  2  0  0  0  0
  3 18  1  0  0  0  0
  5  8  1  0  0  0  0
  6 10  1  0  0  0  0
  7  4  1  1  0  0  0
  7  9  1  0  0  0  0
  7 13  1  0  0  0  0
  8 10  2  0  0  0  0
  8 17  1  0  0  0  0
  9 12  1  0  0  0  0
  9 20  1  1  0  0  0
 10 16  1  0  0  0  0
 11 12  1  0  0  0  0
 11 15  1  0  0  0  0
 11 27  1  0  0  0  0
 13 15  1  0  0  0  0
 18 31  1  0  0  0  0
 19 22  1  0  0  0  0
 19 23  2  0  0  0  0
 19 24  1  0  0  0  0
 20 32  1  0  0  0  0
 21 25  2  0  0  0  0
 21 26  1  0  0  0  0
 21 29  1  0  0  0  0
 23 25  1  0  0  0  0
 24 26  2  0  0  0  0
 27 28  1  0  0  0  0
 28 30  1  0  0  0  0
 29 30  1  0  0  0  0
M  END
>  <DATABASE_ID>
DB00604

>  <DATABASE_NAME>
drugbank

>  <SMILES>
Clc1cc(C(=O)N[C@@H]2CCN(C[C@@H]2OC)CCCOc2ccc(F)cc2)c(OC)cc1N

>  <INCHI_IDENTIFIER>
InChI=1S/C23H29ClFN3O4/c1-30-21-13-19(26)18(24)12-17(21)23(29)27-20-8-10-28(14-22(20)31-2)9-3-11-32-16-6-4-15(25)5-7-16/h4-7,12-13,20,22H,3,8-11,14,26H2,1-2H3,(H,27,29)/t20-,22+/m1/s1

>  <INCHI_KEY>
InChIKey=DCSUBABJRXZOMT-IRLDBZIGSA-N

>  <JCHEM_ACCEPTOR_COUNT>
6

>  <JCHEM_AVERAGE_POLARIZABILITY>
49.111813

>  <JCHEM_BIOAVAILABILITY>
1

>  <JCHEM_DONOR_COUNT>
2

>  <JCHEM_EXACT_MASS>
465.18307

>  <JCHEM_FORMAL_CHARGE>
0

>  <JCHEM_FORMULA>
C23H29ClFN3O4

>  <JCHEM_GHOSE_FILTER>
1

>  <JCHEM_IUPAC>
4-amino-5-chloro-N-[(3S,4R)-1-[3-(4-fluorophenoxy)propyl]-3-methoxypiperidin-4-yl]-2-methoxybenzamide

>  <ALOGPS_LOGP>
2.95

>  <JCHEM_LOGP>
2.4913588

>  <ALOGPS_LOGS>
-4.5900002

>  <JCHEM_MASS>
465.94501

>  <JCHEM_MDDR_LIKE_RULE>
1

>  <JCHEM_NUMBER_OF_RINGS>
3

>  <JCHEM_PHYSIOLOGICAL_CHARGE>
1

>  <JCHEM_PKA>
18.768892

>  <JCHEM_PKA_STRONGEST_ACIDIC>
14.575678

>  <JCHEM_PKA_STRONGEST_BASIC>
8.239419

>  <JCHEM_POLAR_SURFACE_AREA>
86.050003

>  <JCHEM_REFRACTIVITY>
122.9349

>  <JCHEM_ROTATABLE_BOND_COUNT>
9

>  <JCHEM_RULE_OF_FIVE>
1

>  <ALOGPS_SOLUBILITY>
1.20e-02 g/l

>  <JCHEM_TRADITIONAL_IUPAC>
cisapride

>  <JCHEM_VEBER_RULE>
0

>  <DRUGBANK_ID>
DB00604

>  <DRUG_GROUPS>
approved; investigational; withdrawn

>  <GENERIC_NAME>
Cisapride

>  <SYNONYMS>
Cisaprid; Cisaprida; Cisapride; Cisapridum

>  <BRANDS>
Enteropride; Kinestase; Prepulsid; Pridesia; Propulsid; Propulsid Quicksolv

>  <SALTS>
Cisapride Monohydrate

$$$$
Sulindac
 OpenBabel02121510022D

 25 27  0  0  1  0  0  0  0  0999 V2000
   10.8580   -5.2880    0.0000 C   0  0  0  0  0  0  0  0  0  0  0  0
   11.5260   -4.8030    0.0000 C   0  0  0  0  0  0  0  0  0  0  0  0
   11.2710   -4.0180    0.0000 C   0  0  0  0  0  0  0  0  0  0  0  0
   10.4460   -4.0180    0.0000 C   0  0  0  0  0  0  0  0  0  0  0  0
   10.1910   -4.8030    0.0000 C   0  0  0  0  0  0  0  0  0  0  0  0
    9.8940   -3.4050    0.0000 C   0  0  0  0  0  0  0  0  0  0  0  0
    9.0870   -3.5770    0.0000 C   0  0  0  0  0  0  0  0  0  0  0  0
    8.8320   -4.3620    0.0000 C   0  0  0  0  0  0  0  0  0  0  0  0
    9.3840   -4.9750    0.0000 C   0  0  0  0  0  0  0  0  0  0  0  0
   10.8580   -6.1130    0.0000 C   0  0  0  0  0  0  0  0  0  0  0  0
   10.1440   -6.5260    0.0000 C   0  0  0  0  0  0  0  0  0  0  0  0
    9.4290   -6.1130    0.0000 C   0  0  0  0  0  0  0  0  0  0  0  0
    8.7150   -6.5260    0.0000 C   0  0  0  0  0  0  0  0  0  0  0  0
    8.7150   -7.3500    0.0000 C   0  0  0  0  0  0  0  0  0  0  0  0
    9.4290   -7.7630    0.0000 C   0  0  0  0  0  0  0  0  0  0  0  0
   10.1440   -7.3500    0.0000 C   0  0  0  0  0  0  0  0  0  0  0  0
    8.0000   -7.7630    0.0000 S   0  0  3  0  0  0  0  0  0  0  0  0
    8.0000   -8.5880    0.0000 O   0  0  0  0  0  0  0  0  0  0  0  0
    7.2860   -7.3500    0.0000 C   0  0  0  0  0  0  0  0  0  0  0  0
   11.8540   -3.4350    0.0000 C   0  0  0  0  0  0  0  0  0  0  0  0
   12.6510   -3.6490    0.0000 C   0  0  0  0  0  0  0  0  0  0  0  0
   13.2340   -3.0650    0.0000 O   0  0  0  0  0  0  0  0  0  0  0  0
   12.9370   -4.4270    0.0000 O   0  0  0  0  0  0  0  0  0  0  0  0
    8.5030   -2.9940    0.0000 F   0  0  0  0  0  0  0  0  0  0  0  0
   12.3220   -5.0160    0.0000 C   0  0  0  0  0  0  0  0  0  0  0  0
  1  2  1  0  0  0  0
  1  5  1  0  0  0  0
  1 10  2  0  0  0  0
  2  3  2  0  0  0  0
  2 25  1  0  0  0  0
  3  4  1  0  0  0  0
  3 20  1  0  0  0  0
  4  5  1  0  0  0  0
  4  6  2  0  0  0  0
  5  9  2  0  0  0  0
  6  7  1  0  0  0  0
  7  8  2  0  0  0  0
  7 24  1  0  0  0  0
  8  9  1  0  0  0  0
 10 11  1  0  0  0  0
 11 12  1  0  0  0  0
 11 16  2  0  0  0  0
 12 13  2  0  0  0  0
 13 14  1  0  0  0  0
 14 15  2  0  0  0  0
 14 17  1  0  0  0  0
 15 16  1  0  0  0  0
 17 18  2  0  0  0  0
 17 19  1  0  0  0  0
 20 21  1  0  0  0  0
 21 22  1  0  0  0  0
 21 23  2  0  0  0  0
M  END
>  <DATABASE_ID>
DB00605

>  <DATABASE_NAME>
drugbank

>  <SMILES>
S(=O)(C)c1ccc(cc1)\C=C\1/c2c(cc(F)cc2)C(CC(O)=O)=C/1C

>  <INCHI_IDENTIFIER>
InChI=1S/C20H17FO3S/c1-12-17(9-13-3-6-15(7-4-13)25(2)24)16-8-5-14(21)10-19(16)18(12)11-20(22)23/h3-10H,11H2,1-2H3,(H,22,23)/b17-9-

>  <INCHI_KEY>
InChIKey=MLKXDPUZXIRXEP-MFOYZWKCSA-N

>  <JCHEM_ACCEPTOR_COUNT>
3

>  <JCHEM_AVERAGE_POLARIZABILITY>
37.201042

>  <JCHEM_BIOAVAILABILITY>
1

>  <JCHEM_DONOR_COUNT>
1

>  <JCHEM_EXACT_MASS>
356.08826

>  <JCHEM_FORMAL_CHARGE>
0

>  <JCHEM_FORMULA>
C20H17FO3S

>  <JCHEM_GHOSE_FILTER>
1

>  <JCHEM_IUPAC>
2-[(1Z)-5-fluoro-1-[(4-methanesulfinylphenyl)methylidene]-2-methyl-1H-inden-3-yl]acetic acid

>  <ALOGPS_LOGP>
2.96

>  <JCHEM_LOGP>
2.9261546

>  <ALOGPS_LOGS>
-4.1500001

>  <JCHEM_MASS>
356.41101

>  <JCHEM_MDDR_LIKE_RULE>
0

>  <JCHEM_NUMBER_OF_RINGS>
3

>  <JCHEM_PHYSIOLOGICAL_CHARGE>
-1

>  <JCHEM_PKA>
19.371149

>  <JCHEM_PKA_STRONGEST_ACIDIC>
4.0902061

>  <JCHEM_PKA_STRONGEST_BASIC>
-6.6553254

>  <JCHEM_POLAR_SURFACE_AREA>
54.369999

>  <JCHEM_REFRACTIVITY>
99.5588

>  <JCHEM_ROTATABLE_BOND_COUNT>
4

>  <JCHEM_RULE_OF_FIVE>
1

>  <ALOGPS_SOLUBILITY>
2.51e-02 g/l

>  <JCHEM_TRADITIONAL_IUPAC>
sulindac

>  <JCHEM_VEBER_RULE>
0

>  <DRUGBANK_ID>
DB00605

>  <DRUG_GROUPS>
approved

>  <GENERIC_NAME>
Sulindac

>  <BRANDS>
Clinoril

$$$$
Nafcillin
 OpenBabel02121510022D

 30 33  0  0  1  0  0  0  0  0999 V2000
    2.4710   -0.9370    0.0000 S   0  0  0  0  0  0  0  0  0  0  0  0
    5.2060   -0.5680    0.0000 O   0  0  0  0  0  0  0  0  0  0  0  0
    3.3350   -3.3100    0.0000 O   0  0  0  0  0  0  0  0  0  0  0  0
    4.6090   -2.6640    0.0000 O   0  0  0  0  0  0  0  0  0  0  0  0
    5.2220    0.8500    0.0000 O   0  0  0  0  0  0  0  0  0  0  0  0
    3.0790    2.0880    0.0000 O   0  0  0  0  0  0  0  0  0  0  0  0
    3.7890   -1.1490    0.0000 N   0  0  0  0  0  0  0  0  0  0  0  0
    3.7940    0.8500    0.0000 N   0  0  0  0  0  0  0  0  0  0  0  0
    3.2060   -0.5640    0.0000 C   0  0  1  0  0  0  0  0  0  0  0  0
    2.5980   -1.7520    0.0000 C   0  0  0  0  0  0  0  0  0  0  0  0
    3.4130   -1.8830    0.0000 C   0  0  2  0  0  0  0  0  0  0  0  0
    3.7940    0.0250    0.0000 C   0  0  1  0  0  0  0  0  0  0  0  0
    4.3800   -0.5640    0.0000 C   0  0  0  0  0  0  0  0  0  0  0  0
    1.7830   -1.8800    0.0000 C   0  0  0  0  0  0  0  0  0  0  0  0
    2.4670   -2.5670    0.0000 C   0  0  0  0  0  0  0  0  0  0  0  0
    3.7860   -2.6190    0.0000 C   0  0  0  0  0  0  0  0  0  0  0  0
    4.5080    1.2630    0.0000 C   0  0  0  0  0  0  0  0  0  0  0  0
    4.5080    2.0880    0.0000 C   0  0  0  0  0  0  0  0  0  0  0  0
    5.2220    2.5000    0.0000 C   0  0  0  0  0  0  0  0  0  0  0  0
    3.7940    2.5000    0.0000 C   0  0  0  0  0  0  0  0  0  0  0  0
    5.2220    3.3250    0.0000 C   0  0  0  0  0  0  0  0  0  0  0  0
    3.7940    3.3250    0.0000 C   0  0  0  0  0  0  0  0  0  0  0  0
    5.9600    2.0590    0.0000 C   0  0  0  0  0  0  0  0  0  0  0  0
    4.5080    3.7380    0.0000 C   0  0  0  0  0  0  0  0  0  0  0  0
    5.9600    3.7660    0.0000 C   0  0  0  0  0  0  0  0  0  0  0  0
    6.7070    2.4830    0.0000 C   0  0  0  0  0  0  0  0  0  0  0  0
    6.7070    3.3420    0.0000 C   0  0  0  0  0  0  0  0  0  0  0  0
    2.3640    2.5000    0.0000 C   0  0  0  0  0  0  0  0  0  0  0  0
    1.6500    2.0880    0.0000 C   0  0  0  0  0  0  0  0  0  0  0  0
    2.8180   -0.0300    0.0000 H   0  0  0  0  0  0  0  0  0  0  0  0
  1  9  1  0  0  0  0
  1 10  1  0  0  0  0
  2 13  2  0  0  0  0
  3 16  1  0  0  0  0
  4 16  2  0  0  0  0
  5 17  2  0  0  0  0
  6 20  1  0  0  0  0
  6 28  1  0  0  0  0
  7  9  1  0  0  0  0
  7 11  1  0  0  0  0
  7 13  1  0  0  0  0
  8 17  1  0  0  0  0
  9 12  1  0  0  0  0
  9 30  1  1  0  0  0
 10 11  1  0  0  0  0
 10 14  1  0  0  0  0
 10 15  1  0  0  0  0
 11 16  1  1  0  0  0
 12  8  1  6  0  0  0
 12 13  1  0  0  0  0
 17 18  1  0  0  0  0
 18 19  2  0  0  0  0
 18 20  1  0  0  0  0
 19 21  1  0  0  0  0
 19 23  1  0  0  0  0
 20 22  2  0  0  0  0
 21 24  2  0  0  0  0
 21 25  1  0  0  0  0
 22 24  1  0  0  0  0
 23 26  2  0  0  0  0
 25 27  2  0  0  0  0
 26 27  1  0  0  0  0
 28 29  1  0  0  0  0
M  END
>  <DATABASE_ID>
DB00607

>  <DATABASE_NAME>
drugbank

>  <SMILES>
S1[C@H]2N([C@@H](C(O)=O)C1(C)C)C(=O)[C@H]2NC(=O)c1c2c(ccc1OCC)cccc2

>  <INCHI_IDENTIFIER>
InChI=1S/C21H22N2O5S/c1-4-28-13-10-9-11-7-5-6-8-12(11)14(13)17(24)22-15-18(25)23-16(20(26)27)21(2,3)29-19(15)23/h5-10,15-16,19H,4H2,1-3H3,(H,22,24)(H,26,27)/t15-,16+,19-/m1/s1

>  <INCHI_KEY>
InChIKey=GPXLMGHLHQJAGZ-JTDSTZFVSA-N

>  <JCHEM_ACCEPTOR_COUNT>
5

>  <JCHEM_AVERAGE_POLARIZABILITY>
42.223988

>  <JCHEM_BIOAVAILABILITY>
1

>  <JCHEM_DONOR_COUNT>
2

>  <JCHEM_EXACT_MASS>
414.12494

>  <JCHEM_FORMAL_CHARGE>
0

>  <JCHEM_FORMULA>
C21H22N2O5S

>  <JCHEM_GHOSE_FILTER>
1

>  <JCHEM_IUPAC>
(2S,5R,6R)-6-(2-ethoxynaphthalene-1-amido)-3,3-dimethyl-7-oxo-4-thia-1-azabicyclo[3.2.0]heptane-2-carboxylic acid

>  <ALOGPS_LOGP>
3.21

>  <JCHEM_LOGP>
2.2891259

>  <ALOGPS_LOGS>
-4.3800001

>  <JCHEM_MASS>
414.47501

>  <JCHEM_MDDR_LIKE_RULE>
0

>  <JCHEM_NUMBER_OF_RINGS>
4

>  <JCHEM_PHYSIOLOGICAL_CHARGE>
-1

>  <JCHEM_PKA>
13.984843

>  <JCHEM_PKA_STRONGEST_ACIDIC>
3.3094113

>  <JCHEM_PKA_STRONGEST_BASIC>
-1.6115526

>  <JCHEM_POLAR_SURFACE_AREA>
95.940002

>  <JCHEM_REFRACTIVITY>
108.1384

>  <JCHEM_ROTATABLE_BOND_COUNT>
5

>  <JCHEM_RULE_OF_FIVE>
1

>  <ALOGPS_SOLUBILITY>
1.72e-02 g/l

>  <JCHEM_TRADITIONAL_IUPAC>
nafcillin

>  <JCHEM_VEBER_RULE>
0

>  <DRUGBANK_ID>
DB00607

>  <DRUG_GROUPS>
approved

>  <GENERIC_NAME>
Nafcillin

>  <SYNONYMS>
Nafcilina; Nafcilline; Nafcillinum

>  <BRANDS>
Nallpen; Unipen

>  <SALTS>
Nafcillin Sodium

$$$$
Chloroquine
 OpenBabel02121510022D

 22 23  0  0  1  0  0  0  0  0999 V2000
    8.1350    3.3060    0.0000 Cl  0  0  0  0  0  0  0  0  0  0  0  0
    3.0790   -2.0770    0.0000 N   0  0  0  0  0  0  0  0  0  0  0  0
    5.2220    0.8110    0.0000 N   0  0  0  0  0  0  0  0  0  0  0  0
    5.2220    3.2860    0.0000 N   0  0  0  0  0  0  0  0  0  0  0  0
    4.5080   -0.4270    0.0000 C   0  0  0  0  0  0  0  0  0  0  0  0
    3.7930   -0.8390    0.0000 C   0  0  0  0  0  0  0  0  0  0  0  0
    4.5080    0.3980    0.0000 C   0  0  3  0  0  0  0  0  0  0  0  0
    3.7930   -1.6640    0.0000 C   0  0  0  0  0  0  0  0  0  0  0  0
    3.7930    0.8110    0.0000 C   0  0  0  0  0  0  0  0  0  0  0  0
    3.0790   -2.9020    0.0000 C   0  0  0  0  0  0  0  0  0  0  0  0
    2.3640   -1.6640    0.0000 C   0  0  0  0  0  0  0  0  0  0  0  0
    5.2220    1.6360    0.0000 C   0  0  0  0  0  0  0  0  0  0  0  0
    5.9370    2.0480    0.0000 C   0  0  0  0  0  0  0  0  0  0  0  0
    2.3640   -3.3140    0.0000 C   0  0  0  0  0  0  0  0  0  0  0  0
    1.6500   -2.0770    0.0000 C   0  0  0  0  0  0  0  0  0  0  0  0
    4.5080    2.0480    0.0000 C   0  0  0  0  0  0  0  0  0  0  0  0
    5.9370    2.8730    0.0000 C   0  0  0  0  0  0  0  0  0  0  0  0
    6.6740    1.6070    0.0000 C   0  0  0  0  0  0  0  0  0  0  0  0
    4.5080    2.8730    0.0000 C   0  0  0  0  0  0  0  0  0  0  0  0
    6.6740    3.3140    0.0000 C   0  0  0  0  0  0  0  0  0  0  0  0
    7.4220    2.0310    0.0000 C   0  0  0  0  0  0  0  0  0  0  0  0
    7.4220    2.8900    0.0000 C   0  0  0  0  0  0  0  0  0  0  0  0
  1 22  1  0  0  0  0
  2  8  1  0  0  0  0
  2 10  1  0  0  0  0
  2 11  1  0  0  0  0
  3  7  1  0  0  0  0
  3 12  1  0  0  0  0
  4 17  2  0  0  0  0
  4 19  1  0  0  0  0
  5  6  1  0  0  0  0
  5  7  1  0  0  0  0
  6  8  1  0  0  0  0
  7  9  1  0  0  0  0
 10 14  1  0  0  0  0
 11 15  1  0  0  0  0
 12 13  2  0  0  0  0
 12 16  1  0  0  0  0
 13 17  1  0  0  0  0
 13 18  1  0  0  0  0
 16 19  2  0  0  0  0
 17 20  1  0  0  0  0
 18 21  2  0  0  0  0
 20 22  2  0  0  0  0
 21 22  1  0  0  0  0
M  END
>  <DATABASE_ID>
DB00608

>  <DATABASE_NAME>
drugbank

>  <SMILES>
Clc1cc2nccc(NC(CCCN(CC)CC)C)c2cc1

>  <INCHI_IDENTIFIER>
InChI=1S/C18H26ClN3/c1-4-22(5-2)12-6-7-14(3)21-17-10-11-20-18-13-15(19)8-9-16(17)18/h8-11,13-14H,4-7,12H2,1-3H3,(H,20,21)

>  <INCHI_KEY>
InChIKey=WHTVZRBIWZFKQO-UHFFFAOYSA-N

>  <JCHEM_ACCEPTOR_COUNT>
3

>  <JCHEM_AVERAGE_POLARIZABILITY>
37.287903

>  <JCHEM_BIOAVAILABILITY>
1

>  <JCHEM_DONOR_COUNT>
1

>  <JCHEM_EXACT_MASS>
319.18152

>  <JCHEM_FORMAL_CHARGE>
0

>  <JCHEM_FORMULA>
C18H26ClN3

>  <JCHEM_GHOSE_FILTER>
1

>  <JCHEM_IUPAC>
{4-[(7-chloroquinolin-4-yl)amino]pentyl}diethylamine

>  <ALOGPS_LOGP>
5.2800002

>  <JCHEM_LOGP>
3.933881

>  <ALOGPS_LOGS>
-4.2600002

>  <JCHEM_MASS>
319.87201

>  <JCHEM_MDDR_LIKE_RULE>
0

>  <JCHEM_NUMBER_OF_RINGS>
2

>  <JCHEM_PHYSIOLOGICAL_CHARGE>
2

>  <JCHEM_PKA_STRONGEST_BASIC>
10.324448

>  <JCHEM_POLAR_SURFACE_AREA>
28.16

>  <JCHEM_REFRACTIVITY>
96.422997

>  <JCHEM_ROTATABLE_BOND_COUNT>
8

>  <JCHEM_RULE_OF_FIVE>
1

>  <ALOGPS_SOLUBILITY>
1.75e-02 g/l

>  <JCHEM_TRADITIONAL_IUPAC>
chloroquine

>  <JCHEM_VEBER_RULE>
1

>  <DRUGBANK_ID>
DB00608

>  <DRUG_GROUPS>
approved

>  <GENERIC_NAME>
Chloroquine

>  <SYNONYMS>
Chloraquine; Chloroquina; Chloroquinium; Resochin

>  <BRANDS>
Aralen; Artrichin; Bemaphate; Capquin; Malarex; Nivaquine B; Resoquine; Reumachlor; Sanoquin

>  <SALTS>
Chloroquine Phosphate

$$$$
Ethionamide
 OpenBabel02121510022D

 11 11  0  0  0  0  0  0  0  0999 V2000
    2.3640    1.6000    0.0000 S   0  0  0  0  0  0  0  0  0  0  0  0
    3.0790   -1.2870    0.0000 N   0  0  0  0  0  0  0  0  0  0  0  0
    3.7930    1.6000    0.0000 N   0  0  0  0  0  0  0  0  0  0  0  0
    1.6500   -1.2870    0.0000 C   0  0  0  0  0  0  0  0  0  0  0  0
    2.3640   -0.8740    0.0000 C   0  0  0  0  0  0  0  0  0  0  0  0
    2.3640   -0.0500    0.0000 C   0  0  0  0  0  0  0  0  0  0  0  0
    3.0790    0.3630    0.0000 C   0  0  0  0  0  0  0  0  0  0  0  0
    1.6500   -2.1120    0.0000 C   0  0  0  0  0  0  0  0  0  0  0  0
    3.7930   -0.0500    0.0000 C   0  0  0  0  0  0  0  0  0  0  0  0
    3.7930   -0.8740    0.0000 C   0  0  0  0  0  0  0  0  0  0  0  0
    3.0790    1.1880    0.0000 C   0  0  0  0  0  0  0  0  0  0  0  0
  1 11  2  0  0  0  0
  2  5  1  0  0  0  0
  2 10  2  0  0  0  0
  3 11  1  0  0  0  0
  4  5  1  0  0  0  0
  4  8  1  0  0  0  0
  5  6  2  0  0  0  0
  6  7  1  0  0  0  0
  7  9  2  0  0  0  0
  7 11  1  0  0  0  0
  9 10  1  0  0  0  0
M  END
>  <DATABASE_ID>
DB00609

>  <DATABASE_NAME>
drugbank

>  <SMILES>
S=C(N)c1cc(ncc1)CC

>  <INCHI_IDENTIFIER>
InChI=1S/C8H10N2S/c1-2-7-5-6(8(9)11)3-4-10-7/h3-5H,2H2,1H3,(H2,9,11)

>  <INCHI_KEY>
InChIKey=AEOCXXJPGCBFJA-UHFFFAOYSA-N

>  <JCHEM_ACCEPTOR_COUNT>
1

>  <JCHEM_AVERAGE_POLARIZABILITY>
17.986666

>  <JCHEM_BIOAVAILABILITY>
1

>  <JCHEM_DONOR_COUNT>
1

>  <JCHEM_EXACT_MASS>
166.05647

>  <JCHEM_FORMAL_CHARGE>
0

>  <JCHEM_FORMULA>
C8H10N2S

>  <JCHEM_GHOSE_FILTER>
1

>  <JCHEM_IUPAC>
2-ethylpyridine-4-carbothioamide

>  <ALOGPS_LOGP>
1.88

>  <JCHEM_LOGP>
1.3279893

>  <ALOGPS_LOGS>
-2.3

>  <JCHEM_MASS>
166.243

>  <JCHEM_MDDR_LIKE_RULE>
0

>  <JCHEM_NUMBER_OF_RINGS>
1

>  <JCHEM_PHYSIOLOGICAL_CHARGE>
0

>  <JCHEM_PKA_STRONGEST_ACIDIC>
11.89397

>  <JCHEM_PKA_STRONGEST_BASIC>
5.0034056

>  <JCHEM_POLAR_SURFACE_AREA>
38.91

>  <JCHEM_REFRACTIVITY>
50.188801

>  <JCHEM_ROTATABLE_BOND_COUNT>
2

>  <JCHEM_RULE_OF_FIVE>
1

>  <ALOGPS_SOLUBILITY>
8.39e-01 g/l

>  <JCHEM_TRADITIONAL_IUPAC>
ethionamide

>  <JCHEM_VEBER_RULE>
1

>  <DRUGBANK_ID>
DB00609

>  <DRUG_GROUPS>
approved

>  <GENERIC_NAME>
Ethionamide

>  <SYNONYMS>
2-ethylthioisonicotinamide; Ethinamide; Ethionamidum; Ethioniamide; Ethylisothiamide; Ethyonomide; Etionamid; Etionamida; Etionamide; Etioniamid

>  <BRANDS>
Ethatyl; Ethide; Ethiokox; Ethomid; Etionamida; Etomid; Eton; Etyomid; Myobid; Trecator; Trecator-SC; Tubermin

$$$$
Bisoprolol
 OpenBabel02121510022D

 23 23  0  0  1  0  0  0  0  0999 V2000
    4.5080    1.6500    0.0000 O   0  0  0  0  0  0  0  0  0  0  0  0
    4.5080    3.3000    0.0000 O   0  0  0  0  0  0  0  0  0  0  0  0
    3.7940   -2.0620    0.0000 O   0  0  0  0  0  0  0  0  0  0  0  0
    3.0790   -4.1250    0.0000 O   0  0  0  0  0  0  0  0  0  0  0  0
    5.9370    4.1250    0.0000 N   0  0  0  0  0  0  0  0  0  0  0  0
    5.9370    3.3000    0.0000 C   0  0  0  0  0  0  0  0  0  0  0  0
    5.2220    2.8880    0.0000 C   0  0  3  0  0  0  0  0  0  0  0  0
    6.6520    4.5380    0.0000 C   0  0  0  0  0  0  0  0  0  0  0  0
    5.2220    2.0620    0.0000 C   0  0  0  0  0  0  0  0  0  0  0  0
    7.3660    4.1250    0.0000 C   0  0  0  0  0  0  0  0  0  0  0  0
    6.6520    5.3630    0.0000 C   0  0  0  0  0  0  0  0  0  0  0  0
    4.5080    0.8250    0.0000 C   0  0  0  0  0  0  0  0  0  0  0  0
    4.5080   -0.8250    0.0000 C   0  0  0  0  0  0  0  0  0  0  0  0
    4.5080   -1.6500    0.0000 C   0  0  0  0  0  0  0  0  0  0  0  0
    2.3640   -4.5380    0.0000 C   0  0  0  0  0  0  0  0  0  0  0  0
    3.7940    0.4120    0.0000 C   0  0  0  0  0  0  0  0  0  0  0  0
    5.2220    0.4120    0.0000 C   0  0  0  0  0  0  0  0  0  0  0  0
    3.7940   -2.8880    0.0000 C   0  0  0  0  0  0  0  0  0  0  0  0
    3.0790   -3.3000    0.0000 C   0  0  0  0  0  0  0  0  0  0  0  0
    3.7940   -0.4120    0.0000 C   0  0  0  0  0  0  0  0  0  0  0  0
    5.2220   -0.4120    0.0000 C   0  0  0  0  0  0  0  0  0  0  0  0
    2.3640   -5.3630    0.0000 C   0  0  0  0  0  0  0  0  0  0  0  0
    1.6500   -4.1250    0.0000 C   0  0  0  0  0  0  0  0  0  0  0  0
  1  9  1  0  0  0  0
  1 12  1  0  0  0  0
  2  7  1  0  0  0  0
  3 14  1  0  0  0  0
  3 18  1  0  0  0  0
  4 15  1  0  0  0  0
  4 19  1  0  0  0  0
  5  6  1  0  0  0  0
  5  8  1  0  0  0  0
  6  7  1  0  0  0  0
  7  9  1  0  0  0  0
  8 10  1  0  0  0  0
  8 11  1  0  0  0  0
 12 16  2  0  0  0  0
 12 17  1  0  0  0  0
 13 14  1  0  0  0  0
 13 20  2  0  0  0  0
 13 21  1  0  0  0  0
 15 22  1  0  0  0  0
 15 23  1  0  0  0  0
 16 20  1  0  0  0  0
 17 21  2  0  0  0  0
 18 19  1  0  0  0  0
M  END
>  <DATABASE_ID>
DB00612

>  <DATABASE_NAME>
drugbank

>  <SMILES>
O(CC(O)CNC(C)C)c1ccc(cc1)COCCOC(C)C

>  <INCHI_IDENTIFIER>
InChI=1S/C18H31NO4/c1-14(2)19-11-17(20)13-23-18-7-5-16(6-8-18)12-21-9-10-22-15(3)4/h5-8,14-15,17,19-20H,9-13H2,1-4H3

>  <INCHI_KEY>
InChIKey=VHYCDWMUTMEGQY-UHFFFAOYSA-N

>  <JCHEM_ACCEPTOR_COUNT>
5

>  <JCHEM_AVERAGE_POLARIZABILITY>
38.497402

>  <JCHEM_BIOAVAILABILITY>
1

>  <JCHEM_DONOR_COUNT>
2

>  <JCHEM_EXACT_MASS>
325.22531

>  <JCHEM_FORMAL_CHARGE>
0

>  <JCHEM_FORMULA>
C18H31NO4

>  <JCHEM_GHOSE_FILTER>
1

>  <JCHEM_IUPAC>
[2-hydroxy-3-(4-{[2-(propan-2-yloxy)ethoxy]methyl}phenoxy)propyl](propan-2-yl)amine

>  <ALOGPS_LOGP>
2.3

>  <JCHEM_LOGP>
2.1964033

>  <ALOGPS_LOGS>
-3.6600001

>  <JCHEM_MASS>
325.44299

>  <JCHEM_MDDR_LIKE_RULE>
0

>  <JCHEM_NUMBER_OF_RINGS>
1

>  <JCHEM_PHYSIOLOGICAL_CHARGE>
1

>  <JCHEM_PKA_STRONGEST_ACIDIC>
14.087972

>  <JCHEM_PKA_STRONGEST_BASIC>
9.6661663

>  <JCHEM_POLAR_SURFACE_AREA>
59.950001

>  <JCHEM_REFRACTIVITY>
92.153503

>  <JCHEM_ROTATABLE_BOND_COUNT>
12

>  <JCHEM_RULE_OF_FIVE>
1

>  <ALOGPS_SOLUBILITY>
7.07e-02 g/l

>  <JCHEM_TRADITIONAL_IUPAC>
bisoprolol

>  <JCHEM_VEBER_RULE>
0

>  <DRUGBANK_ID>
DB00612

>  <DRUG_GROUPS>
approved

>  <GENERIC_NAME>
Bisoprolol

>  <SYNONYMS>
Bisoprolol; Bisoprololum

>  <BRANDS>
Cardicor; Concor; Concore; Detensiel; Emconcor; Emcor; Euradal; Isoten; Monocor; Soprol; Zebeta

>  <SALTS>
Bisoprolol Fumarate

$$$$
Furazolidone
 OpenBabel02121510022D

 16 17  0  0  0  0  0  0  0  0999 V2000
    7.6450   -0.4300    0.0000 O   0  0  0  0  0  0  0  0  0  0  0  0
    3.7150   -0.1720    0.0000 O   0  0  0  0  0  0  0  0  0  0  0  0
    6.3350   -1.0970    0.0000 O   0  0  0  0  0  0  0  0  0  0  0  0
    1.6500    0.6100    0.0000 O   0  5  0  0  0  0  0  0  0  0  0  0
    2.0920   -0.7490    0.0000 O   0  0  0  0  0  0  0  0  0  0  0  0
    6.5650    0.3550    0.0000 N   0  0  0  0  0  0  0  0  0  0  0  0
    5.7810    0.6100    0.0000 N   0  0  0  0  0  0  0  0  0  0  0  0
    2.2630    0.0580    0.0000 N   0  3  0  0  0  0  0  0  0  0  0  0
    7.2330    0.8400    0.0000 C   0  0  0  0  0  0  0  0  0  0  0  0
    7.9000    0.3550    0.0000 C   0  0  0  0  0  0  0  0  0  0  0  0
    6.8200   -0.4300    0.0000 C   0  0  0  0  0  0  0  0  0  0  0  0
    4.3830    0.3130    0.0000 C   0  0  0  0  0  0  0  0  0  0  0  0
    5.1680    0.0580    0.0000 C   0  0  0  0  0  0  0  0  0  0  0  0
    4.1280    1.0970    0.0000 C   0  0  0  0  0  0  0  0  0  0  0  0
    3.0480    0.3130    0.0000 C   0  0  0  0  0  0  0  0  0  0  0  0
    3.3030    1.0970    0.0000 C   0  0  0  0  0  0  0  0  0  0  0  0
  1 10  1  0  0  0  0
  1 11  1  0  0  0  0
  2 12  1  0  0  0  0
  2 15  1  0  0  0  0
  3 11  2  0  0  0  0
  4  8  1  0  0  0  0
  5  8  2  0  0  0  0
  6  7  1  0  0  0  0
  6  9  1  0  0  0  0
  6 11  1  0  0  0  0
  7 13  2  3  0  0  0
  8 15  1  0  0  0  0
  9 10  1  0  0  0  0
 12 13  1  0  0  0  0
 12 14  2  0  0  0  0
 14 16  1  0  0  0  0
 15 16  2  0  0  0  0
M  CHG  2   4  -1   8   1
M  END
>  <DATABASE_ID>
DB00614

>  <DATABASE_NAME>
drugbank

>  <SMILES>
O1CCN(N=Cc2oc([N+](=O)[O-])cc2)C1=O

>  <INCHI_IDENTIFIER>
InChI=1S/C8H7N3O5/c12-8-10(3-4-15-8)9-5-6-1-2-7(16-6)11(13)14/h1-2,5H,3-4H2/b9-5+

>  <INCHI_KEY>
InChIKey=PLHJDBGFXBMTGZ-WEVVVXLNSA-N

>  <JCHEM_ACCEPTOR_COUNT>
4

>  <JCHEM_AVERAGE_POLARIZABILITY>
19.74461

>  <JCHEM_BIOAVAILABILITY>
1

>  <JCHEM_DONOR_COUNT>
0

>  <JCHEM_EXACT_MASS>
225.03857

>  <JCHEM_FORMAL_CHARGE>
0

>  <JCHEM_FORMULA>
C8H7N3O5

>  <JCHEM_GHOSE_FILTER>
1

>  <JCHEM_IUPAC>
3-{[(5-nitrofuran-2-yl)methylidene]amino}-1,3-oxazolidin-2-one

>  <ALOGPS_LOGP>
0.15000001

>  <JCHEM_LOGP>
0.86992443

>  <ALOGPS_LOGS>
-2.79

>  <JCHEM_MASS>
225.15829

>  <JCHEM_MDDR_LIKE_RULE>
0

>  <JCHEM_NUMBER_OF_RINGS>
2

>  <JCHEM_PHYSIOLOGICAL_CHARGE>
0

>  <JCHEM_PKA_STRONGEST_BASIC>
-2.4135878

>  <JCHEM_POLAR_SURFACE_AREA>
100.86

>  <JCHEM_REFRACTIVITY>
51.085201

>  <JCHEM_ROTATABLE_BOND_COUNT>
3

>  <JCHEM_RULE_OF_FIVE>
1

>  <ALOGPS_SOLUBILITY>
3.64e-01 g/l

>  <JCHEM_TRADITIONAL_IUPAC>
furazolidone

>  <JCHEM_VEBER_RULE>
0

>  <DRUGBANK_ID>
DB00614

>  <DRUG_GROUPS>
approved

>  <GENERIC_NAME>
Furazolidone

>  <SYNONYMS>
5-Nitro-N-(2-oxo-3-oxazolidinyl)-2-furanmethanimine; FZL; Nitrofurazolidone; Nitrofurazolidonum

>  <BRANDS>
Dependal-M; Furoxone

$$$$
Rifabutin
 OpenBabel02121510022D

 61 66  0  0  1  0  0  0  0  0999 V2000
   15.4060  -12.0930    0.0000 C   0  0  0  0  0  0  0  0  0  0  0  0
   15.4020  -12.9190    0.0000 C   0  0  0  0  0  0  0  0  0  0  0  0
   16.1120  -13.3340    0.0000 C   0  0  0  0  0  0  0  0  0  0  0  0
   16.8310  -12.9270    0.0000 N   0  0  0  0  0  0  0  0  0  0  0  0
   16.8360  -12.1000    0.0000 C   0  0  0  0  0  0  0  0  0  0  0  0
   16.1210  -11.6810    0.0000 C   0  0  0  0  0  0  0  0  0  0  0  0
   13.2680  -10.0250    0.0000 C   0  0  0  0  0  0  0  0  0  0  0  0
   13.2650  -10.8510    0.0000 C   0  0  0  0  0  0  0  0  0  0  0  0
   12.5540  -11.2660    0.0000 C   0  0  0  0  0  0  0  0  0  0  0  0
   12.5540  -12.0950    0.0000 C   0  0  0  0  0  0  0  0  0  0  0  0
   11.8340  -10.8610    0.0000 C   0  0  0  0  0  0  0  0  0  0  0  0
   11.1260   -9.6210    0.0000 C   0  0  2  0  0  0  0  0  0  0  0  0
   11.8360  -10.0400    0.0000 C   0  0  0  0  0  0  0  0  0  0  0  0
   12.5490   -9.6330    0.0000 C   0  0  0  0  0  0  0  0  0  0  0  0
   11.1320   -8.7980    0.0000 C   0  0  2  0  0  0  0  0  0  0  0  0
   11.8500   -8.3950    0.0000 C   0  0  2  0  0  0  0  0  0  0  0  0
   12.5700   -7.1690    0.0000 C   0  0  1  0  0  0  0  0  0  0  0  0
   11.8580   -7.5700    0.0000 C   0  0  1  0  0  0  0  0  0  0  0  0
   13.2780   -7.5840    0.0000 C   0  0  1  0  0  0  0  0  0  0  0  0
   13.2690   -8.4060    0.0000 O   0  0  0  0  0  0  0  0  0  0  0  0
   13.9920   -7.1860    0.0000 C   0  0  2  0  0  0  0  0  0  0  0  0
   14.6970   -7.6010    0.0000 C   0  0  0  0  0  0  0  0  0  0  0  0
   16.0990   -8.4320    0.0000 C   0  0  0  0  0  0  0  0  0  0  0  0
   16.1050   -7.6180    0.0000 C   0  0  0  0  0  0  0  0  0  0  0  0
   15.4080   -7.2050    0.0000 C   0  0  0  0  0  0  0  0  0  0  0  0
   15.3880   -8.8330    0.0000 C   0  0  0  0  0  0  0  0  0  0  0  0
   13.9680   -9.6170    0.0000 C   0  0  0  0  0  0  0  0  0  0  0  0
   14.6630  -10.0360    0.0000 C   0  0  0  0  0  0  0  0  0  0  0  0
   15.3730   -9.6420    0.0000 N   0  0  0  0  0  0  0  0  0  0  0  0
   13.1420  -12.6760    0.0000 O   0  0  0  0  0  0  0  0  0  0  0  0
   10.4060  -10.0340    0.0000 C   0  0  2  0  0  0  0  0  0  0  0  0
   10.4040  -10.8570    0.0000 C   0  0  0  0  0  0  0  0  0  0  0  0
    9.6890  -11.2640    0.0000 C   0  0  0  0  0  0  0  0  0  0  0  0
    9.6830  -12.0850    0.0000 O   0  0  0  0  0  0  0  0  0  0  0  0
   11.1080  -12.0950    0.0000 C   0  0  1  0  0  0  0  0  0  0  0  0
   11.1140  -11.2740    0.0000 O   0  0  0  0  0  0  0  0  0  0  0  0
   11.1030  -12.9190    0.0000 C   0  0  0  0  0  0  0  0  0  0  0  0
   16.8070   -8.8570    0.0000 C   0  0  0  0  0  0  0  0  0  0  0  0
    9.6900   -9.6160    0.0000 O   0  0  0  0  0  0  0  0  0  0  0  0
    8.9760  -10.0280    0.0000 C   0  0  0  0  0  0  0  0  0  0  0  0
   10.4050   -9.2070    0.0000 C   0  0  0  0  0  0  0  0  0  0  0  0
   12.5790   -6.3420    0.0000 C   0  0  0  0  0  0  0  0  0  0  0  0
   14.0020   -6.3600    0.0000 C   0  0  0  0  0  0  0  0  0  0  0  0
   10.4190   -8.3820    0.0000 O   0  0  0  0  0  0  0  0  0  0  0  0
   11.1460   -7.1460    0.0000 O   0  0  0  0  0  0  0  0  0  0  0  0
    9.6980   -7.9650    0.0000 C   0  0  0  0  0  0  0  0  0  0  0  0
    8.9820   -8.3820    0.0000 C   0  0  0  0  0  0  0  0  0  0  0  0
    9.6970   -7.1390    0.0000 O   0  0  0  0  0  0  0  0  0  0  0  0
   13.9740   -8.7900    0.0000 O   0  0  0  0  0  0  0  0  0  0  0  0
   12.5410   -8.8040    0.0000 O   0  0  0  0  0  0  0  0  0  0  0  0
   11.1280   -7.9780    0.0000 C   0  0  0  0  0  0  0  0  0  0  0  0
   14.6770   -8.4060    0.0000 O   0  0  0  0  0  0  0  0  0  0  0  0
   14.6990  -10.8530    0.0000 C   0  0  0  0  0  0  0  0  0  0  0  0
   13.9810  -11.2640    0.0000 C   0  0  0  0  0  0  0  0  0  0  0  0
   13.9770  -12.0890    0.0000 N   0  0  0  0  0  0  0  0  0  0  0  0
   15.4130  -11.2710    0.0000 N   0  0  0  0  0  0  0  0  0  0  0  0
   17.5460  -13.3420    0.0000 C   0  0  0  0  0  0  0  0  0  0  0  0
   18.2660  -12.9340    0.0000 C   0  0  0  0  0  0  0  0  0  0  0  0
   18.9810  -13.3490    0.0000 C   0  0  0  0  0  0  0  0  0  0  0  0
   18.2700  -12.1080    0.0000 C   0  0  0  0  0  0  0  0  0  0  0  0
   11.8310   -9.1900    0.0000 C   0  0  0  0  0  0  0  0  0  0  0  0
  1  2  1  0  0  0  0
  1  6  1  0  0  0  0
  1 55  1  0  0  0  0
  1 56  1  0  0  0  0
  2  3  1  0  0  0  0
  3  4  1  0  0  0  0
  4  5  1  0  0  0  0
  4 57  1  0  0  0  0
  5  6  1  0  0  0  0
  7  8  1  0  0  0  0
  7 14  2  0  0  0  0
  7 27  1  0  0  0  0
  8  9  2  0  0  0  0
  8 54  1  0  0  0  0
  9 10  1  0  0  0  0
  9 11  1  0  0  0  0
 10 30  2  0  0  0  0
 10 35  1  0  0  0  0
 11 13  2  0  0  0  0
 11 36  1  0  0  0  0
 12 15  1  0  0  0  0
 12 31  1  0  0  0  0
 12 41  1  1  0  0  0
 13 14  1  0  0  0  0
 13 61  1  0  0  0  0
 14 50  1  0  0  0  0
 15 16  1  0  0  0  0
 15 44  1  1  0  0  0
 16 18  1  0  0  0  0
 16 51  1  6  0  0  0
 17 18  1  0  0  0  0
 17 19  1  0  0  0  0
 17 42  1  6  0  0  0
 18 45  1  6  0  0  0
 19 20  1  6  0  0  0
 19 21  1  0  0  0  0
 21 22  1  0  0  0  0
 21 43  1  1  0  0  0
 22 25  2  0  0  0  0
 23 24  2  0  0  0  0
 23 26  1  0  0  0  0
 23 38  1  0  0  0  0
 24 25  1  0  0  0  0
 26 29  1  0  0  0  0
 26 52  2  0  0  0  0
 27 28  1  0  0  0  0
 27 49  2  0  0  0  0
 28 29  1  0  0  0  0
 28 53  2  0  0  0  0
 31 32  1  0  0  0  0
 31 39  1  6  0  0  0
 32 33  2  0  0  0  0
 33 34  1  0  0  0  0
 34 35  1  0  0  0  0
 35 36  1  0  0  0  0
 35 37  1  6  0  0  0
 39 40  1  0  0  0  0
 44 46  1  0  0  0  0
 46 47  1  0  0  0  0
 46 48  2  0  0  0  0
 53 54  1  0  0  0  0
 53 56  1  0  0  0  0
 54 55  2  0  0  0  0
 57 58  1  0  0  0  0
 58 59  1  0  0  0  0
 58 60  1  0  0  0  0
M  END
>  <DATABASE_ID>
DB00615

>  <DATABASE_NAME>
drugbank

>  <SMILES>
O1c2c3c4c(c(O)c2C)C(=O)C(NC(=O)/C(=C\C=C\[C@H](C)[C@H](O)[C@@H](C)[C@@H](O)[C@@H](C)[C@H](OC(=O)C)[C@H](C)[C@@H](OC)\C=C\O[C@]1(C)C3=O)/C)=C1NC2(N=C14)CCN(CC2)CC(C)C

>  <INCHI_IDENTIFIER>
InChI=1S/C46H62N4O11/c1-22(2)21-50-18-16-46(17-19-50)48-34-31-32-39(54)28(8)42-33(31)43(56)45(10,61-42)59-20-15-30(58-11)25(5)41(60-29(9)51)27(7)38(53)26(6)37(52)23(3)13-12-14-24(4)44(57)47-36(40(32)55)35(34)49-46/h12-15,20,22-23,25-27,30,37-38,41,49,52-54H,16-19,21H2,1-11H3,(H,47,57)/b13-12+,20-15+,24-14-/t23-,25+,26+,27+,30-,37-,38+,41+,45-/m0/s1

>  <INCHI_KEY>
InChIKey=ATEBXHFBFRCZMA-VXTBVIBXSA-N

>  <JCHEM_ACCEPTOR_COUNT>
13

>  <JCHEM_AVERAGE_POLARIZABILITY>
90.718056

>  <JCHEM_BIOAVAILABILITY>
0

>  <JCHEM_DONOR_COUNT>
5

>  <JCHEM_EXACT_MASS>
846.44153

>  <JCHEM_FORMAL_CHARGE>
0

>  <JCHEM_FORMULA>
C46H62N4O11

>  <JCHEM_GHOSE_FILTER>
0

>  <JCHEM_IUPAC>
(7S,11S,12R,13S,14R,15R,16R,17S,18S)-2,15,17-trihydroxy-11-methoxy-3,7,12,14,16,18,22-heptamethyl-1'-(2-methylpropyl)-6,23,32-trioxo-8,33-dioxa-24,27,29-triazaspiro[pentacyclo[23.6.1.1^{4,7}.0^{5,31}.0^{26,30}]tritriacontane-28,4'-piperidin]-1,3,5(31),9,19,21,25,29-octaen-13-yl acetate

>  <ALOGPS_LOGP>
4.25

>  <JCHEM_LOGP>
4.1864443

>  <ALOGPS_LOGS>
-4.6999998

>  <JCHEM_MASS>
847.0047

>  <JCHEM_MDDR_LIKE_RULE>
0

>  <JCHEM_NUMBER_OF_RINGS>
6

>  <JCHEM_PHYSIOLOGICAL_CHARGE>
1

>  <JCHEM_PKA>
12.632802

>  <JCHEM_PKA_STRONGEST_ACIDIC>
7.9289389

>  <JCHEM_PKA_STRONGEST_BASIC>
8.6227055

>  <JCHEM_POLAR_SURFACE_AREA>
205.55

>  <JCHEM_REFRACTIVITY>
232.6445

>  <JCHEM_ROTATABLE_BOND_COUNT>
5

>  <JCHEM_RULE_OF_FIVE>
0

>  <ALOGPS_SOLUBILITY>
1.70e-02 g/l

>  <JCHEM_TRADITIONAL_IUPAC>
(7S,11S,12R,13S,14R,15R,16R,17S,18S)-2,15,17-trihydroxy-11-methoxy-3,7,12,14,16,18,22-heptamethyl-1'-(2-methylpropyl)-6,23,32-trioxo-8,33-dioxa-24,27,29-triazaspiro[pentacyclo[23.6.1.1^{4,7}.0^{5,31}.0^{26,30}]tritriacontane-28,4'-piperidin]-1,3,5(31),9,19,21,25,29-octaen-13-yl acetate

>  <JCHEM_VEBER_RULE>
0

>  <DRUGBANK_ID>
DB00615

>  <DRUG_GROUPS>
approved

>  <GENERIC_NAME>
Rifabutin

>  <SYNONYMS>
Ansamicin; Ansamycin; Rifabutin; Rifabutina; Rifabutine; Rifabutinum

>  <BRANDS>
Ansatipin; Ansatipine; Mycobutin; Ributin

$$$$
Demeclocycline
 OpenBabel02121510022D

 34 37  0  0  1  0  0  0  0  0999 V2000
    9.1460   -3.4370    0.0000 C   0  0  0  0  0  0  0  0  0  0  0  0
    7.7170   -5.9120    0.0000 N   0  0  0  0  0  0  0  0  0  0  0  0
    7.0030   -4.6740    0.0000 C   0  0  2  0  0  0  0  0  0  0  0  0
    7.0030   -3.8490    0.0000 C   0  0  2  0  0  0  0  0  0  0  0  0
    7.7170   -5.0870    0.0000 C   0  0  1  0  0  0  0  0  0  0  0  0
    6.2880   -5.0870    0.0000 C   0  0  0  0  0  0  0  0  0  0  0  0
    6.2880   -3.4370    0.0000 C   0  0  0  0  0  0  0  0  0  0  0  0
    7.7170   -3.4370    0.0000 C   0  0  0  0  0  0  0  0  0  0  0  0
    7.0030   -3.0240    0.0000 O   0  0  0  0  0  0  0  0  0  0  0  0
    8.4320   -4.6740    0.0000 C   0  0  0  0  0  0  0  0  0  0  0  0
    5.5740   -4.6740    0.0000 C   0  0  1  0  0  0  0  0  0  0  0  0
    5.5740   -3.8490    0.0000 C   0  0  0  0  0  0  0  0  0  0  0  0
    6.2880   -2.6120    0.0000 O   0  0  0  0  0  0  0  0  0  0  0  0
    8.4320   -3.8490    0.0000 C   0  0  0  0  0  0  0  0  0  0  0  0
    7.7170   -2.6120    0.0000 O   0  0  0  0  0  0  0  0  0  0  0  0
    9.1460   -5.0870    0.0000 O   0  0  0  0  0  0  0  0  0  0  0  0
    4.8590   -5.0870    0.0000 C   0  0  1  0  0  0  0  0  0  0  0  0
    4.8590   -3.4370    0.0000 C   0  0  0  0  0  0  0  0  0  0  0  0
    4.1450   -4.6740    0.0000 C   0  0  0  0  0  0  0  0  0  0  0  0
    4.8590   -5.9120    0.0000 O   0  0  0  0  0  0  0  0  0  0  0  0
    4.1450   -3.8490    0.0000 C   0  0  0  0  0  0  0  0  0  0  0  0
    4.8590   -2.6120    0.0000 O   0  0  0  0  0  0  0  0  0  0  0  0
    3.4300   -5.0870    0.0000 C   0  0  0  0  0  0  0  0  0  0  0  0
    3.4300   -3.4370    0.0000 C   0  0  0  0  0  0  0  0  0  0  0  0
    2.7160   -4.6740    0.0000 C   0  0  0  0  0  0  0  0  0  0  0  0
    3.4300   -5.9120    0.0000 Cl  0  0  0  0  0  0  0  0  0  0  0  0
    2.7160   -3.8490    0.0000 C   0  0  0  0  0  0  0  0  0  0  0  0
    3.4300   -2.6120    0.0000 O   0  0  0  0  0  0  0  0  0  0  0  0
    7.0030   -5.4990    0.0000 H   0  0  0  0  0  0  0  0  0  0  0  0
    5.5740   -5.4990    0.0000 H   0  0  0  0  0  0  0  0  0  0  0  0
    8.4320   -6.3240    0.0000 C   0  0  0  0  0  0  0  0  0  0  0  0
    7.0030   -6.3240    0.0000 C   0  0  0  0  0  0  0  0  0  0  0  0
    9.1460   -2.6120    0.0000 O   0  0  0  0  0  0  0  0  0  0  0  0
    9.8610   -3.8490    0.0000 N   0  0  0  0  0  0  0  0  0  0  0  0
  1 14  1  0  0  0  0
  1 33  2  0  0  0  0
  1 34  1  0  0  0  0
  2 31  1  0  0  0  0
  2 32  1  0  0  0  0
  3  4  1  0  0  0  0
  3  5  1  0  0  0  0
  3  6  1  0  0  0  0
  3 29  1  1  0  0  0
  4  7  1  0  0  0  0
  4  8  1  0  0  0  0
  4  9  1  1  0  0  0
  5  2  1  1  0  0  0
  5 10  1  0  0  0  0
  6 11  1  0  0  0  0
  7 12  2  0  0  0  0
  7 13  1  0  0  0  0
  8 14  1  0  0  0  0
  8 15  2  0  0  0  0
 10 14  2  0  0  0  0
 10 16  1  0  0  0  0
 11 12  1  0  0  0  0
 11 17  1  0  0  0  0
 11 30  1  1  0  0  0
 12 18  1  0  0  0  0
 17 19  1  0  0  0  0
 17 20  1  6  0  0  0
 18 21  1  0  0  0  0
 18 22  2  0  0  0  0
 19 21  2  0  0  0  0
 19 23  1  0  0  0  0
 21 24  1  0  0  0  0
 23 25  2  0  0  0  0
 23 26  1  0  0  0  0
 24 27  2  0  0  0  0
 24 28  1  0  0  0  0
 25 27  1  0  0  0  0
M  END
>  <DATABASE_ID>
DB00618

>  <DATABASE_NAME>
drugbank

>  <SMILES>
Clc1c2c(C(=O)C=3[C@H](C[C@@H]4[C@@](O)(C(=O)C(C(=O)N)=C(O)[C@H]4N(C)C)C=3O)[C@@H]2O)c(O)cc1

>  <INCHI_IDENTIFIER>
InChI=1S/C21H21ClN2O8/c1-24(2)14-7-5-6-10(16(27)12-9(25)4-3-8(22)11(12)15(6)26)18(29)21(7,32)19(30)13(17(14)28)20(23)31/h3-4,6-7,14-15,25-26,28-29,32H,5H2,1-2H3,(H2,23,31)/t6-,7-,14-,15-,21-/m0/s1

>  <INCHI_KEY>
InChIKey=FMTDIUIBLCQGJB-SEYHBJAFSA-N

>  <JCHEM_ACCEPTOR_COUNT>
9

>  <JCHEM_AVERAGE_POLARIZABILITY>
43.796612

>  <JCHEM_BIOAVAILABILITY>
1

>  <JCHEM_DONOR_COUNT>
6

>  <JCHEM_EXACT_MASS>
464.09863

>  <JCHEM_FORMAL_CHARGE>
0

>  <JCHEM_FORMULA>
C21H21ClN2O8

>  <JCHEM_GHOSE_FILTER>
0

>  <JCHEM_IUPAC>
(4S,4aS,5aS,6S,12aS)-7-chloro-4-(dimethylamino)-3,6,10,12,12a-pentahydroxy-1,11-dioxo-1,4,4a,5,5a,6,11,12a-octahydrotetracene-2-carboxamide

>  <ALOGPS_LOGP>
-0.40000001

>  <JCHEM_LOGP>
-3.2341983

>  <ALOGPS_LOGS>
-2.9400001

>  <JCHEM_MASS>
464.853

>  <JCHEM_MDDR_LIKE_RULE>
0

>  <JCHEM_NUMBER_OF_RINGS>
4

>  <JCHEM_PHYSIOLOGICAL_CHARGE>
-1

>  <JCHEM_PKA>
4.3453937

>  <JCHEM_PKA_STRONGEST_ACIDIC>
-2.5592184

>  <JCHEM_PKA_STRONGEST_BASIC>
8.2301798

>  <JCHEM_POLAR_SURFACE_AREA>
181.62

>  <JCHEM_REFRACTIVITY>
114.3549

>  <JCHEM_ROTATABLE_BOND_COUNT>
2

>  <JCHEM_RULE_OF_FIVE>
0

>  <ALOGPS_SOLUBILITY>
5.30e-01 g/l

>  <JCHEM_TRADITIONAL_IUPAC>
demeclocycline

>  <JCHEM_VEBER_RULE>
0

>  <DRUGBANK_ID>
DB00618

>  <DRUG_GROUPS>
approved

>  <GENERIC_NAME>
Demeclocycline

>  <SYNONYMS>
6-Demethyl-7-chlorotetracycline; 7-Chloro-6-demethyltetracycline; Demeclociclina; Demeclocycline; Demeclocyclinum; Demethylchlortetracyclin; Demethylchlortetracycline; DMCT; DMCTC

>  <BRANDS>
Declomycin; Declostatin; Ledermycin

>  <SALTS>
Demeclocycline hydrochloride

$$$$
Imatinib
 OpenBabel02121510022D

 37 41  0  0  0  0  0  0  0  0999 V2000
    5.9370   -0.4120    0.0000 O   0  0  0  0  0  0  0  0  0  0  0  0
    2.3640   -2.4750    0.0000 N   0  0  0  0  0  0  0  0  0  0  0  0
    2.3640   -4.1250    0.0000 N   0  0  0  0  0  0  0  0  0  0  0  0
    5.2220    0.8250    0.0000 N   0  0  0  0  0  0  0  0  0  0  0  0
    6.6520    3.3000    0.0000 N   0  0  0  0  0  0  0  0  0  0  0  0
    5.2220    3.3000    0.0000 N   0  0  0  0  0  0  0  0  0  0  0  0
    5.9370    4.5380    0.0000 N   0  0  0  0  0  0  0  0  0  0  0  0
    3.0790    2.0620    0.0000 N   0  0  0  0  0  0  0  0  0  0  0  0
    1.6500   -2.8880    0.0000 C   0  0  0  0  0  0  0  0  0  0  0  0
    3.0790   -2.8880    0.0000 C   0  0  0  0  0  0  0  0  0  0  0  0
    1.6500   -3.7130    0.0000 C   0  0  0  0  0  0  0  0  0  0  0  0
    3.0790   -3.7130    0.0000 C   0  0  0  0  0  0  0  0  0  0  0  0
    2.3640   -1.6500    0.0000 C   0  0  0  0  0  0  0  0  0  0  0  0
    2.3640   -4.9500    0.0000 C   0  0  0  0  0  0  0  0  0  0  0  0
    3.0790   -1.2380    0.0000 C   0  0  0  0  0  0  0  0  0  0  0  0
    3.7940   -1.6500    0.0000 C   0  0  0  0  0  0  0  0  0  0  0  0
    3.0790   -0.4120    0.0000 C   0  0  0  0  0  0  0  0  0  0  0  0
    4.5080   -1.2380    0.0000 C   0  0  0  0  0  0  0  0  0  0  0  0
    3.7940    0.0000    0.0000 C   0  0  0  0  0  0  0  0  0  0  0  0
    4.5080   -0.4120    0.0000 C   0  0  0  0  0  0  0  0  0  0  0  0
    5.2220    0.0000    0.0000 C   0  0  0  0  0  0  0  0  0  0  0  0
    5.9370    1.2380    0.0000 C   0  0  0  0  0  0  0  0  0  0  0  0
    6.6520    2.4750    0.0000 C   0  0  0  0  0  0  0  0  0  0  0  0
    5.9370    2.0620    0.0000 C   0  0  0  0  0  0  0  0  0  0  0  0
    7.3660    2.0620    0.0000 C   0  0  0  0  0  0  0  0  0  0  0  0
    6.6520    0.8250    0.0000 C   0  0  0  0  0  0  0  0  0  0  0  0
    7.3660    1.2380    0.0000 C   0  0  0  0  0  0  0  0  0  0  0  0
    8.0800    2.4750    0.0000 C   0  0  0  0  0  0  0  0  0  0  0  0
    5.9370    3.7130    0.0000 C   0  0  0  0  0  0  0  0  0  0  0  0
    4.5080    3.7130    0.0000 C   0  0  0  0  0  0  0  0  0  0  0  0
    3.7940    3.3000    0.0000 C   0  0  0  0  0  0  0  0  0  0  0  0
    4.5080    4.5380    0.0000 C   0  0  0  0  0  0  0  0  0  0  0  0
    5.2220    4.9500    0.0000 C   0  0  0  0  0  0  0  0  0  0  0  0
    3.0790    3.7130    0.0000 C   0  0  0  0  0  0  0  0  0  0  0  0
    3.7940    2.4750    0.0000 C   0  0  0  0  0  0  0  0  0  0  0  0
    2.3640    3.3000    0.0000 C   0  0  0  0  0  0  0  0  0  0  0  0
    2.3640    2.4750    0.0000 C   0  0  0  0  0  0  0  0  0  0  0  0
  1 21  2  0  0  0  0
  2  9  1  0  0  0  0
  2 10  1  0  0  0  0
  2 13  1  0  0  0  0
  3 11  1  0  0  0  0
  3 12  1  0  0  0  0
  3 14  1  0  0  0  0
  4 21  1  0  0  0  0
  4 22  1  0  0  0  0
  5 23  1  0  0  0  0
  5 29  1  0  0  0  0
  6 29  2  0  0  0  0
  6 30  1  0  0  0  0
  7 29  1  0  0  0  0
  7 33  2  0  0  0  0
  8 35  2  0  0  0  0
  8 37  1  0  0  0  0
  9 11  1  0  0  0  0
 10 12  1  0  0  0  0
 13 15  1  0  0  0  0
 15 16  2  0  0  0  0
 15 17  1  0  0  0  0
 16 18  1  0  0  0  0
 17 19  2  0  0  0  0
 18 20  2  0  0  0  0
 19 20  1  0  0  0  0
 20 21  1  0  0  0  0
 22 24  2  0  0  0  0
 22 26  1  0  0  0  0
 23 24  1  0  0  0  0
 23 25  2  0  0  0  0
 25 27  1  0  0  0  0
 25 28  1  0  0  0  0
 26 27  2  0  0  0  0
 30 31  1  0  0  0  0
 30 32  2  0  0  0  0
 31 34  2  0  0  0  0
 31 35  1  0  0  0  0
 32 33  1  0  0  0  0
 34 36  1  0  0  0  0
 36 37  2  0  0  0  0
M  END
>  <DATABASE_ID>
DB00619

>  <DATABASE_NAME>
drugbank

>  <SMILES>
O=C(Nc1cc(Nc2nc(ccn2)-c2cccnc2)c(cc1)C)c1ccc(cc1)CN1CCN(CC1)C

>  <INCHI_IDENTIFIER>
InChI=1S/C29H31N7O/c1-21-5-10-25(18-27(21)34-29-31-13-11-26(33-29)24-4-3-12-30-19-24)32-28(37)23-8-6-22(7-9-23)20-36-16-14-35(2)15-17-36/h3-13,18-19H,14-17,20H2,1-2H3,(H,32,37)(H,31,33,34)

>  <INCHI_KEY>
InChIKey=KTUFNOKKBVMGRW-UHFFFAOYSA-N

>  <JCHEM_ACCEPTOR_COUNT>
7

>  <JCHEM_AVERAGE_POLARIZABILITY>
55.538555

>  <JCHEM_BIOAVAILABILITY>
1

>  <JCHEM_DONOR_COUNT>
2

>  <JCHEM_EXACT_MASS>
493.259

>  <JCHEM_FORMAL_CHARGE>
0

>  <JCHEM_FORMULA>
C29H31N7O

>  <JCHEM_GHOSE_FILTER>
0

>  <JCHEM_IUPAC>
N-(4-methyl-3-{[4-(pyridin-3-yl)pyrimidin-2-yl]amino}phenyl)-4-[(4-methylpiperazin-1-yl)methyl]benzamide

>  <ALOGPS_LOGP>
3.47

>  <JCHEM_LOGP>
4.3776731

>  <ALOGPS_LOGS>
-4.5300002

>  <JCHEM_MASS>
493.60269

>  <JCHEM_MDDR_LIKE_RULE>
1

>  <JCHEM_NUMBER_OF_RINGS>
5

>  <JCHEM_PHYSIOLOGICAL_CHARGE>
1

>  <JCHEM_PKA>
13.451731

>  <JCHEM_PKA_STRONGEST_ACIDIC>
12.454878

>  <JCHEM_PKA_STRONGEST_BASIC>
8.2722101

>  <JCHEM_POLAR_SURFACE_AREA>
86.279999

>  <JCHEM_REFRACTIVITY>
148.92931

>  <JCHEM_ROTATABLE_BOND_COUNT>
7

>  <JCHEM_RULE_OF_FIVE>
1

>  <ALOGPS_SOLUBILITY>
1.46e-02 g/l

>  <JCHEM_TRADITIONAL_IUPAC>
imatinib

>  <JCHEM_VEBER_RULE>
0

>  <DRUGBANK_ID>
DB00619

>  <DRUG_GROUPS>
approved

>  <GENERIC_NAME>
Imatinib

>  <SYNONYMS>
Imatinib; Imatinibum

>  <BRANDS>
Celonib; Enliven; Gleevec; Glivec; Imatib; Mesylonib; Mitinab; Plivatinib; Shantinib

>  <SALTS>
Imatinib Mesylate

$$$$
Oxandrolone
 OpenBabel02121510022D

 26 29  0  0  1  0  0  0  0  0999 V2000
    7.5470    1.4950    0.0000 O   0  0  0  0  0  0  0  0  0  0  0  0
    2.3730   -0.4540    0.0000 O   0  0  0  0  0  0  0  0  0  0  0  0
    1.6500   -1.7580    0.0000 O   0  0  0  0  0  0  0  0  0  0  0  0
    6.0990   -0.0650    0.0000 C   0  0  2  0  0  0  0  0  0  0  0  0
    6.0990    0.7600    0.0000 C   0  0  1  0  0  0  0  0  0  0  0  0
    5.3840   -0.4780    0.0000 C   0  0  1  0  0  0  0  0  0  0  0  0
    4.6700   -0.0650    0.0000 C   0  0  1  0  0  0  0  0  0  0  0  0
    3.9190   -0.4830    0.0000 C   0  0  2  0  0  0  0  0  0  0  0  0
    6.8790    1.0110    0.0000 C   0  0  2  0  0  0  0  0  0  0  0  0
    5.3840    1.1720    0.0000 C   0  0  0  0  0  0  0  0  0  0  0  0
    4.6700    0.7600    0.0000 C   0  0  0  0  0  0  0  0  0  0  0  0
    6.8790   -0.3170    0.0000 C   0  0  0  0  0  0  0  0  0  0  0  0
    3.9130   -1.3420    0.0000 C   0  0  1  0  0  0  0  0  0  0  0  0
    5.3980   -1.3370    0.0000 C   0  0  0  0  0  0  0  0  0  0  0  0
    7.3610    0.3470    0.0000 C   0  0  0  0  0  0  0  0  0  0  0  0
    4.6570   -1.7720    0.0000 C   0  0  0  0  0  0  0  0  0  0  0  0
    6.0990    1.5850    0.0000 C   0  0  0  0  0  0  0  0  0  0  0  0
    3.1550   -0.0180    0.0000 C   0  0  0  0  0  0  0  0  0  0  0  0
    3.9260    0.3420    0.0000 C   0  0  0  0  0  0  0  0  0  0  0  0
    3.1410   -1.7960    0.0000 C   0  0  0  0  0  0  0  0  0  0  0  0
    6.6260    1.7960    0.0000 C   0  0  0  0  0  0  0  0  0  0  0  0
    2.3660   -1.3480    0.0000 C   0  0  0  0  0  0  0  0  0  0  0  0
    6.1680   -0.7220    0.0000 H   0  0  0  0  0  0  0  0  0  0  0  0
    5.9580   -0.8030    0.0000 H   0  0  0  0  0  0  0  0  0  0  0  0
    5.2420    0.2650    0.0000 H   0  0  0  0  0  0  0  0  0  0  0  0
    3.9150   -2.0020    0.0000 H   0  0  0  0  0  0  0  0  0  0  0  0
  2 18  1  0  0  0  0
  2 22  1  0  0  0  0
  3 22  2  0  0  0  0
  4  5  1  0  0  0  0
  4  6  1  0  0  0  0
  4 12  1  0  0  0  0
  4 23  1  6  0  0  0
  5  9  1  0  0  0  0
  5 10  1  0  0  0  0
  5 17  1  1  0  0  0
  6  7  1  0  0  0  0
  6 14  1  0  0  0  0
  6 24  1  1  0  0  0
  7  8  1  0  0  0  0
  7 11  1  0  0  0  0
  7 25  1  6  0  0  0
  8 13  1  0  0  0  0
  8 18  1  0  0  0  0
  8 19  1  1  0  0  0
  9  1  1  1  0  0  0
  9 15  1  0  0  0  0
  9 21  1  0  0  0  0
 10 11  1  0  0  0  0
 12 15  1  0  0  0  0
 13 16  1  0  0  0  0
 13 20  1  0  0  0  0
 13 26  1  6  0  0  0
 14 16  1  0  0  0  0
 20 22  1  0  0  0  0
M  END
>  <DATABASE_ID>
DB00621

>  <DATABASE_NAME>
drugbank

>  <SMILES>
O1C[C@]2([C@H](CC1=O)CC[C@H]1[C@@H]3CC[C@@](O)(C)[C@]3(CC[C@@H]12)C)C

>  <INCHI_IDENTIFIER>
InChI=1S/C19H30O3/c1-17-11-22-16(20)10-12(17)4-5-13-14(17)6-8-18(2)15(13)7-9-19(18,3)21/h12-15,21H,4-11H2,1-3H3/t12-,13+,14-,15-,17-,18-,19-/m0/s1

>  <INCHI_KEY>
InChIKey=QSLJIVKCVHQPLV-PEMPUTJUSA-N

>  <JCHEM_ACCEPTOR_COUNT>
2

>  <JCHEM_AVERAGE_POLARIZABILITY>
35.286137

>  <JCHEM_BIOAVAILABILITY>
1

>  <JCHEM_DONOR_COUNT>
1

>  <JCHEM_EXACT_MASS>
306.21948

>  <JCHEM_FORMAL_CHARGE>
0

>  <JCHEM_FORMULA>
C19H30O3

>  <JCHEM_GHOSE_FILTER>
1

>  <JCHEM_IUPAC>
(1S,2S,7S,10R,11S,14S,15S)-14-hydroxy-2,14,15-trimethyl-4-oxatetracyclo[8.7.0.0^{2,7}.0^{11,15}]heptadecan-5-one

>  <ALOGPS_LOGP>
3.3599999

>  <JCHEM_LOGP>
2.9536674

>  <ALOGPS_LOGS>
-4.3400002

>  <JCHEM_MASS>
306.4397

>  <JCHEM_MDDR_LIKE_RULE>
0

>  <JCHEM_NUMBER_OF_RINGS>
4

>  <JCHEM_PHYSIOLOGICAL_CHARGE>
0

>  <JCHEM_PKA_STRONGEST_BASIC>
-0.52809155

>  <JCHEM_POLAR_SURFACE_AREA>
46.529999

>  <JCHEM_REFRACTIVITY>
84.749001

>  <JCHEM_ROTATABLE_BOND_COUNT>
0

>  <JCHEM_RULE_OF_FIVE>
1

>  <ALOGPS_SOLUBILITY>
1.40e-02 g/l

>  <JCHEM_TRADITIONAL_IUPAC>
oxandrolone

>  <JCHEM_VEBER_RULE>
0

>  <DRUGBANK_ID>
DB00621

>  <DRUG_GROUPS>
approved; investigational

>  <GENERIC_NAME>
Oxandrolone

>  <SYNONYMS>
Ossandrolone; Oxandrolon; Oxandrolona; Oxandrolone; Oxandrolonum; Protivar

>  <BRANDS>
Anavar; Oxandrin; Oxandrolone; Xtendrol

$$$$
Nicardipine
 OpenBabel02121510022D

 35 37  0  0  1  0  0  0  0  0999 V2000
    6.6520   -0.9820    0.0000 O   0  0  0  0  0  0  0  0  0  0  0  0
   10.9380   -0.9820    0.0000 O   0  0  0  0  0  0  0  0  0  0  0  0
    7.3660    0.2560    0.0000 O   0  0  0  0  0  0  0  0  0  0  0  0
   10.2240    0.2560    0.0000 O   0  0  0  0  0  0  0  0  0  0  0  0
   10.2240    2.7310    0.0000 O   0  5  0  0  0  0  0  0  0  0  0  0
   10.9380    1.4930    0.0000 O   0  0  0  0  0  0  0  0  0  0  0  0
    8.7950   -2.2190    0.0000 N   0  0  0  0  0  0  0  0  0  0  0  0
    4.5080   -0.5690    0.0000 N   0  0  0  0  0  0  0  0  0  0  0  0
   10.2240    1.9060    0.0000 N   0  3  0  0  0  0  0  0  0  0  0  0
    8.7950   -0.5690    0.0000 C   0  0  3  0  0  0  0  0  0  0  0  0
    8.0800   -0.9820    0.0000 C   0  0  0  0  0  0  0  0  0  0  0  0
    9.5090   -0.9820    0.0000 C   0  0  0  0  0  0  0  0  0  0  0  0
    8.7950    0.2560    0.0000 C   0  0  0  0  0  0  0  0  0  0  0  0
    8.0800   -1.8070    0.0000 C   0  0  0  0  0  0  0  0  0  0  0  0
    9.5090   -1.8070    0.0000 C   0  0  0  0  0  0  0  0  0  0  0  0
    7.3660   -0.5690    0.0000 C   0  0  0  0  0  0  0  0  0  0  0  0
    9.5090    0.6680    0.0000 C   0  0  0  0  0  0  0  0  0  0  0  0
    8.0800    0.6680    0.0000 C   0  0  0  0  0  0  0  0  0  0  0  0
    7.3660   -2.2190    0.0000 C   0  0  0  0  0  0  0  0  0  0  0  0
   10.2240   -0.5690    0.0000 C   0  0  0  0  0  0  0  0  0  0  0  0
   10.2240   -2.2190    0.0000 C   0  0  0  0  0  0  0  0  0  0  0  0
    5.2220   -0.9820    0.0000 C   0  0  0  0  0  0  0  0  0  0  0  0
    5.9370   -0.5690    0.0000 C   0  0  0  0  0  0  0  0  0  0  0  0
    9.5090    1.4930    0.0000 C   0  0  0  0  0  0  0  0  0  0  0  0
    8.0800    1.4930    0.0000 C   0  0  0  0  0  0  0  0  0  0  0  0
    3.7940   -0.9820    0.0000 C   0  0  0  0  0  0  0  0  0  0  0  0
    8.7950    1.9060    0.0000 C   0  0  0  0  0  0  0  0  0  0  0  0
    3.0790   -0.5690    0.0000 C   0  0  0  0  0  0  0  0  0  0  0  0
    4.5080    0.2560    0.0000 C   0  0  0  0  0  0  0  0  0  0  0  0
    2.3640   -0.9820    0.0000 C   0  0  0  0  0  0  0  0  0  0  0  0
    3.0790    0.2560    0.0000 C   0  0  0  0  0  0  0  0  0  0  0  0
   11.6530   -0.5690    0.0000 C   0  0  0  0  0  0  0  0  0  0  0  0
    1.6500   -0.5690    0.0000 C   0  0  0  0  0  0  0  0  0  0  0  0
    2.3640    0.6680    0.0000 C   0  0  0  0  0  0  0  0  0  0  0  0
    1.6500    0.2560    0.0000 C   0  0  0  0  0  0  0  0  0  0  0  0
  1 16  1  0  0  0  0
  1 23  1  0  0  0  0
  2 20  1  0  0  0  0
  2 32  1  0  0  0  0
  3 16  2  0  0  0  0
  4 20  2  0  0  0  0
  5  9  1  0  0  0  0
  6  9  2  0  0  0  0
  7 14  1  0  0  0  0
  7 15  1  0  0  0  0
  8 22  1  0  0  0  0
  8 26  1  0  0  0  0
  8 29  1  0  0  0  0
  9 24  1  0  0  0  0
 10 11  1  0  0  0  0
 10 12  1  0  0  0  0
 10 13  1  0  0  0  0
 11 14  2  0  0  0  0
 11 16  1  0  0  0  0
 12 15  2  0  0  0  0
 12 20  1  0  0  0  0
 13 17  2  0  0  0  0
 13 18  1  0  0  0  0
 14 19  1  0  0  0  0
 15 21  1  0  0  0  0
 17 24  1  0  0  0  0
 18 25  2  0  0  0  0
 22 23  1  0  0  0  0
 24 27  2  0  0  0  0
 25 27  1  0  0  0  0
 26 28  1  0  0  0  0
 28 30  2  0  0  0  0
 28 31  1  0  0  0  0
 30 33  1  0  0  0  0
 31 34  2  0  0  0  0
 33 35  2  0  0  0  0
 34 35  1  0  0  0  0
M  CHG  2   5  -1   9   1
M  END
>  <DATABASE_ID>
DB00622

>  <DATABASE_NAME>
drugbank

>  <SMILES>
O(C(=O)C=1C(C(C(OC)=O)=C(NC=1C)C)c1cc([N+](=O)[O-])ccc1)CCN(Cc1ccccc1)C

>  <INCHI_IDENTIFIER>
InChI=1S/C26H29N3O6/c1-17-22(25(30)34-4)24(20-11-8-12-21(15-20)29(32)33)23(18(2)27-17)26(31)35-14-13-28(3)16-19-9-6-5-7-10-19/h5-12,15,24,27H,13-14,16H2,1-4H3

>  <INCHI_KEY>
InChIKey=ZBBHBTPTTSWHBA-UHFFFAOYSA-N

>  <JCHEM_ACCEPTOR_COUNT>
6

>  <JCHEM_AVERAGE_POLARIZABILITY>
49.951355

>  <JCHEM_BIOAVAILABILITY>
1

>  <JCHEM_DONOR_COUNT>
1

>  <JCHEM_EXACT_MASS>
479.20563

>  <JCHEM_FORMAL_CHARGE>
0

>  <JCHEM_FORMULA>
C26H29N3O6

>  <JCHEM_GHOSE_FILTER>
0

>  <JCHEM_IUPAC>
3-{2-[benzyl(methyl)amino]ethyl} 5-methyl 2,6-dimethyl-4-(3-nitrophenyl)-1,4-dihydropyridine-3,5-dicarboxylate

>  <ALOGPS_LOGP>
4.3400002

>  <JCHEM_LOGP>
3.5586119

>  <ALOGPS_LOGS>
-5.29

>  <JCHEM_MASS>
479.52499

>  <JCHEM_MDDR_LIKE_RULE>
1

>  <JCHEM_NUMBER_OF_RINGS>
3

>  <JCHEM_PHYSIOLOGICAL_CHARGE>
1

>  <JCHEM_PKA_STRONGEST_BASIC>
8.1805258

>  <JCHEM_POLAR_SURFACE_AREA>
113.69

>  <JCHEM_REFRACTIVITY>
134.7964

>  <JCHEM_ROTATABLE_BOND_COUNT>
11

>  <JCHEM_RULE_OF_FIVE>
1

>  <ALOGPS_SOLUBILITY>
2.47e-03 g/l

>  <JCHEM_TRADITIONAL_IUPAC>
3-{2-[benzyl(methyl)amino]ethyl} 5-methyl 2,6-dimethyl-4-(3-nitrophenyl)-1,4-dihydropyridine-3,5-dicarboxylate

>  <JCHEM_VEBER_RULE>
0

>  <DRUGBANK_ID>
DB00622

>  <DRUG_GROUPS>
approved

>  <GENERIC_NAME>
Nicardipine

>  <SYNONYMS>
Nicardipino; Nicardipinum

>  <BRANDS>
Cardene; Cardene IV; Cardene SR

>  <SALTS>
Nicardipine Hydrochloride

$$$$
Fluphenazine
 OpenBabel02121510022D

 30 33  0  0  1  0  0  0  0  0999 V2000
    5.9360   -3.5410    0.0000 S   0  0  0  0  0  0  0  0  0  0  0  0
    8.4330   -1.1580    0.0000 F   0  0  0  0  0  0  0  0  0  0  0  0
    9.2630   -2.5840    0.0000 F   0  0  0  0  0  0  0  0  0  0  0  0
    9.5610   -1.4560    0.0000 F   0  0  0  0  0  0  0  0  0  0  0  0
    1.6500    3.0580    0.0000 O   0  0  0  0  0  0  0  0  0  0  0  0
    4.5070    0.5830    0.0000 N   0  0  0  0  0  0  0  0  0  0  0  0
    3.0790    1.4080    0.0000 N   0  0  0  0  0  0  0  0  0  0  0  0
    5.9360   -1.8910    0.0000 N   0  0  0  0  0  0  0  0  0  0  0  0
    3.7930    0.1710    0.0000 C   0  0  0  0  0  0  0  0  0  0  0  0
    4.5070    1.4080    0.0000 C   0  0  0  0  0  0  0  0  0  0  0  0
    3.0790    0.5830    0.0000 C   0  0  0  0  0  0  0  0  0  0  0  0
    3.7930    1.8210    0.0000 C   0  0  0  0  0  0  0  0  0  0  0  0
    5.2220    0.1710    0.0000 C   0  0  0  0  0  0  0  0  0  0  0  0
    5.2220   -0.6540    0.0000 C   0  0  0  0  0  0  0  0  0  0  0  0
    2.3640    1.8210    0.0000 C   0  0  0  0  0  0  0  0  0  0  0  0
    5.9360   -1.0660    0.0000 C   0  0  0  0  0  0  0  0  0  0  0  0
    2.3640    2.6460    0.0000 C   0  0  0  0  0  0  0  0  0  0  0  0
    6.6500   -2.3040    0.0000 C   0  0  0  0  0  0  0  0  0  0  0  0
    5.2220   -2.3040    0.0000 C   0  0  0  0  0  0  0  0  0  0  0  0
    6.6500   -3.1290    0.0000 C   0  0  0  0  0  0  0  0  0  0  0  0
    5.2220   -3.1290    0.0000 C   0  0  0  0  0  0  0  0  0  0  0  0
    7.3880   -1.8630    0.0000 C   0  0  0  0  0  0  0  0  0  0  0  0
    4.4840   -1.8630    0.0000 C   0  0  0  0  0  0  0  0  0  0  0  0
    8.1350   -2.2860    0.0000 C   0  0  0  0  0  0  0  0  0  0  0  0
    7.3880   -3.5700    0.0000 C   0  0  0  0  0  0  0  0  0  0  0  0
    4.4840   -3.5700    0.0000 C   0  0  0  0  0  0  0  0  0  0  0  0
    8.1350   -3.1460    0.0000 C   0  0  0  0  0  0  0  0  0  0  0  0
    3.7370   -2.2860    0.0000 C   0  0  0  0  0  0  0  0  0  0  0  0
    3.7370   -3.1460    0.0000 C   0  0  0  0  0  0  0  0  0  0  0  0
    8.8480   -1.8710    0.0000 C   0  0  0  0  0  0  0  0  0  0  0  0
  1 20  1  0  0  0  0
  1 21  1  0  0  0  0
  2 30  1  0  0  0  0
  3 30  1  0  0  0  0
  4 30  1  0  0  0  0
  5 17  1  0  0  0  0
  6  9  1  0  0  0  0
  6 10  1  0  0  0  0
  6 13  1  0  0  0  0
  7 11  1  0  0  0  0
  7 12  1  0  0  0  0
  7 15  1  0  0  0  0
  8 16  1  0  0  0  0
  8 18  1  0  0  0  0
  8 19  1  0  0  0  0
  9 11  1  0  0  0  0
 10 12  1  0  0  0  0
 13 14  1  0  0  0  0
 14 16  1  0  0  0  0
 15 17  1  0  0  0  0
 18 20  1  0  0  0  0
 18 22  2  0  0  0  0
 19 21  2  0  0  0  0
 19 23  1  0  0  0  0
 20 25  2  0  0  0  0
 21 26  1  0  0  0  0
 22 24  1  0  0  0  0
 23 28  2  0  0  0  0
 24 27  2  0  0  0  0
 24 30  1  0  0  0  0
 25 27  1  0  0  0  0
 26 29  2  0  0  0  0
 28 29  1  0  0  0  0
M  END
>  <DATABASE_ID>
DB00623

>  <DATABASE_NAME>
drugbank

>  <SMILES>
S1c2c(N(c3c1cccc3)CCCN1CCN(CC1)CCO)cc(cc2)C(F)(F)F

>  <INCHI_IDENTIFIER>
InChI=1S/C22H26F3N3OS/c23-22(24,25)17-6-7-21-19(16-17)28(18-4-1-2-5-20(18)30-21)9-3-8-26-10-12-27(13-11-26)14-15-29/h1-2,4-7,16,29H,3,8-15H2

>  <INCHI_KEY>
InChIKey=PLDUPXSUYLZYBN-UHFFFAOYSA-N

>  <JCHEM_ACCEPTOR_COUNT>
4

>  <JCHEM_AVERAGE_POLARIZABILITY>
44.918564

>  <JCHEM_BIOAVAILABILITY>
1

>  <JCHEM_DONOR_COUNT>
1

>  <JCHEM_EXACT_MASS>
437.17487

>  <JCHEM_FORMAL_CHARGE>
0

>  <JCHEM_FORMULA>
C22H26F3N3OS

>  <JCHEM_GHOSE_FILTER>
1

>  <JCHEM_IUPAC>
2-(4-{3-[2-(trifluoromethyl)-10H-phenothiazin-10-yl]propyl}piperazin-1-yl)ethan-1-ol

>  <ALOGPS_LOGP>
4.4000001

>  <JCHEM_LOGP>
3.9658215

>  <ALOGPS_LOGS>
-4.3600001

>  <JCHEM_MASS>
437.522

>  <JCHEM_MDDR_LIKE_RULE>
1

>  <JCHEM_NUMBER_OF_RINGS>
4

>  <JCHEM_PHYSIOLOGICAL_CHARGE>
1

>  <JCHEM_PKA_STRONGEST_ACIDIC>
15.593098

>  <JCHEM_PKA_STRONGEST_BASIC>
8.2114277

>  <JCHEM_POLAR_SURFACE_AREA>
29.950001

>  <JCHEM_REFRACTIVITY>
117.2676

>  <JCHEM_ROTATABLE_BOND_COUNT>
7

>  <JCHEM_RULE_OF_FIVE>
1

>  <ALOGPS_SOLUBILITY>
1.90e-02 g/l

>  <JCHEM_TRADITIONAL_IUPAC>
fluphenazine

>  <JCHEM_VEBER_RULE>
1

>  <DRUGBANK_ID>
DB00623

>  <DRUG_GROUPS>
approved

>  <GENERIC_NAME>
Fluphenazine

>  <SYNONYMS>
Flufenazina; Fluorfenazine; Fluorophenazine; Fluorphenazine; Fluphenazin; Fluphénazine; Fluphenazinum; Triflumethazine

>  <BRANDS>
Anatensol; Dapotum D; Fludecasin; Fludecate; Flumezin; Funazine; Lyogen; Lyogen Depot; Lyogen Retard; Metoten; Modecate; Moditen; Moditen Depo; Permitil; Prolixin

>  <SALTS>
Fluphenazine decanoate; Fluphenazine dihydrochloride; Fluphenazine enanthate

$$$$
Testosterone
 OpenBabel02121510022D

 24 27  0  0  1  0  0  0  0  0999 V2000
    7.1350    1.7430    0.0000 O   0  0  0  0  0  0  0  0  0  0  0  0
    1.6500   -1.8100    0.0000 O   0  0  0  0  0  0  0  0  0  0  0  0
    6.0980   -0.1180    0.0000 C   0  0  2  0  0  0  0  0  0  0  0  0
    6.0980    0.7070    0.0000 C   0  0  2  0  0  0  0  0  0  0  0  0
    5.3840   -0.5300    0.0000 C   0  0  1  0  0  0  0  0  0  0  0  0
    4.6700   -0.1180    0.0000 C   0  0  1  0  0  0  0  0  0  0  0  0
    3.9190   -0.5360    0.0000 C   0  0  2  0  0  0  0  0  0  0  0  0
    5.3840    1.1200    0.0000 C   0  0  0  0  0  0  0  0  0  0  0  0
    4.6700    0.7070    0.0000 C   0  0  0  0  0  0  0  0  0  0  0  0
    6.8790    0.9590    0.0000 C   0  0  2  0  0  0  0  0  0  0  0  0
    6.8790   -0.3690    0.0000 C   0  0  0  0  0  0  0  0  0  0  0  0
    5.3970   -1.3890    0.0000 C   0  0  0  0  0  0  0  0  0  0  0  0
    7.3600    0.2950    0.0000 C   0  0  0  0  0  0  0  0  0  0  0  0
    3.9120   -1.3950    0.0000 C   0  0  0  0  0  0  0  0  0  0  0  0
    4.6570   -1.8240    0.0000 C   0  0  0  0  0  0  0  0  0  0  0  0
    6.0980    1.5320    0.0000 C   0  0  0  0  0  0  0  0  0  0  0  0
    3.1550   -0.0700    0.0000 C   0  0  0  0  0  0  0  0  0  0  0  0
    3.9250    0.2890    0.0000 C   0  0  0  0  0  0  0  0  0  0  0  0
    2.3730   -0.5060    0.0000 C   0  0  0  0  0  0  0  0  0  0  0  0
    3.1410   -1.8480    0.0000 C   0  0  0  0  0  0  0  0  0  0  0  0
    2.3660   -1.4010    0.0000 C   0  0  0  0  0  0  0  0  0  0  0  0
    6.1680   -0.7740    0.0000 H   0  0  0  0  0  0  0  0  0  0  0  0
    5.9580   -0.8560    0.0000 H   0  0  0  0  0  0  0  0  0  0  0  0
    5.2410    0.2120    0.0000 H   0  0  0  0  0  0  0  0  0  0  0  0
  2 21  2  0  0  0  0
  3  4  1  0  0  0  0
  3  5  1  0  0  0  0
  3 11  1  0  0  0  0
  3 22  1  6  0  0  0
  4  8  1  0  0  0  0
  4 10  1  0  0  0  0
  4 16  1  1  0  0  0
  5  6  1  0  0  0  0
  5 12  1  0  0  0  0
  5 23  1  1  0  0  0
  6  7  1  0  0  0  0
  6  9  1  0  0  0  0
  6 24  1  6  0  0  0
  7 14  1  0  0  0  0
  7 17  1  0  0  0  0
  7 18  1  1  0  0  0
  8  9  1  0  0  0  0
 10  1  1  1  0  0  0
 10 13  1  0  0  0  0
 11 13  1  0  0  0  0
 12 15  1  0  0  0  0
 14 15  1  0  0  0  0
 14 20  2  0  0  0  0
 17 19  1  0  0  0  0
 19 21  1  0  0  0  0
 20 21  1  0  0  0  0
M  END
>  <DATABASE_ID>
DB00624

>  <DATABASE_NAME>
drugbank

>  <SMILES>
O=C1CC[C@@]2([C@@H]3[C@H]([C@@H]4CC[C@H](O)[C@]4(CC3)C)CCC2=C1)C

>  <INCHI_IDENTIFIER>
InChI=1S/C19H28O2/c1-18-9-7-13(20)11-12(18)3-4-14-15-5-6-17(21)19(15,2)10-8-16(14)18/h11,14-17,21H,3-10H2,1-2H3/t14-,15-,16-,17-,18-,19-/m0/s1

>  <INCHI_KEY>
InChIKey=MUMGGOZAMZWBJJ-DYKIIFRCSA-N

>  <JCHEM_ACCEPTOR_COUNT>
2

>  <JCHEM_AVERAGE_POLARIZABILITY>
34.020275

>  <JCHEM_BIOAVAILABILITY>
1

>  <JCHEM_DONOR_COUNT>
1

>  <JCHEM_EXACT_MASS>
288.20892

>  <JCHEM_FORMAL_CHARGE>
0

>  <JCHEM_FORMULA>
C19H28O2

>  <JCHEM_GHOSE_FILTER>
1

>  <JCHEM_IUPAC>
(1S,2R,10R,11S,14S,15S)-14-hydroxy-2,15-dimethyltetracyclo[8.7.0.0^{2,7}.0^{11,15}]heptadec-6-en-5-one

>  <ALOGPS_LOGP>
2.99

>  <JCHEM_LOGP>
3.3654232

>  <ALOGPS_LOGS>
-3.9400001

>  <JCHEM_MASS>
288.42441

>  <JCHEM_MDDR_LIKE_RULE>
0

>  <JCHEM_NUMBER_OF_RINGS>
4

>  <JCHEM_PHYSIOLOGICAL_CHARGE>
0

>  <JCHEM_PKA>
19.377705

>  <JCHEM_PKA_STRONGEST_ACIDIC>
19.086861

>  <JCHEM_PKA_STRONGEST_BASIC>
-0.88394111

>  <JCHEM_POLAR_SURFACE_AREA>
37.299999

>  <JCHEM_REFRACTIVITY>
84.429802

>  <JCHEM_ROTATABLE_BOND_COUNT>
0

>  <JCHEM_RULE_OF_FIVE>
1

>  <ALOGPS_SOLUBILITY>
3.33e-02 g/l

>  <JCHEM_TRADITIONAL_IUPAC>
testosterone

>  <JCHEM_VEBER_RULE>
1

>  <DRUGBANK_ID>
DB00624

>  <DRUG_GROUPS>
approved; investigational

>  <GENERIC_NAME>
Testosterone

>  <SYNONYMS>
17beta-hydroxy-4-androsten-3-one; 17beta-Hydroxy-4-androsten-3-one; 4-androsten-17β-ol-3-one; Depo-Testadiol; Mertestate; Synandrol F; Testosteron; Testosterona; Testostérone; Testosteronum; Testoxyl; Testryl; Virosterone

>  <BRANDS>
Andriol; Androderm; Androgel; Andronate 100; Andronate 200; Andropatch; Andropository 200; Andryl 200; Aveed; Axiron; Bio-T-Gel; Delatestryl; Depo-Testosterone; FORTESTA; Intrinsa; Livensa; Nebido; Striant; Sustanon; Testamone 100; Testaqua IM; Testim; Testoderm; Testoderm TTS; Testogel; Testolin; Testopatch; Testopel; Testopel Pellets; Testrin-P.A; Testro AQ; Virormone

>  <SALTS>
Testosterone Enanthate; Testosterone Heptanoate; Testosterone Propionate; Testosterone Undecanoate

$$$$
Efavirenz
 OpenBabel02121510022D

 21 23  0  0  1  0  0  0  0  0999 V2000
    5.9910    0.3840    0.0000 Cl  0  0  0  0  0  0  0  0  0  0  0  0
    3.0790   -1.0260    0.0000 F   0  0  0  0  0  0  0  0  0  0  0  0
    2.2540   -1.0260    0.0000 F   0  0  0  0  0  0  0  0  0  0  0  0
    1.9520    0.1020    0.0000 F   0  0  0  0  0  0  0  0  0  0  0  0
    2.3640    0.8160    0.0000 O   0  0  0  0  0  0  0  0  0  0  0  0
    1.6500    2.0540    0.0000 O   0  0  0  0  0  0  0  0  0  0  0  0
    3.0790    2.0540    0.0000 N   0  0  0  0  0  0  0  0  0  0  0  0
    4.3170   -1.7400    0.0000 C   0  0  0  0  0  0  0  0  0  0  0  0
    5.0310   -2.1520    0.0000 C   0  0  0  0  0  0  0  0  0  0  0  0
    4.3170   -2.5650    0.0000 C   0  0  0  0  0  0  0  0  0  0  0  0
    3.0790    0.4030    0.0000 C   0  0  2  0  0  0  0  0  0  0  0  0
    3.9040   -1.0260    0.0000 C   0  0  0  0  0  0  0  0  0  0  0  0
    3.7940    0.8160    0.0000 C   0  0  0  0  0  0  0  0  0  0  0  0
    3.4920   -0.3110    0.0000 C   0  0  0  0  0  0  0  0  0  0  0  0
    3.7940    1.6410    0.0000 C   0  0  0  0  0  0  0  0  0  0  0  0
    2.6660   -0.3110    0.0000 C   0  0  0  0  0  0  0  0  0  0  0  0
    4.5310    0.3750    0.0000 C   0  0  0  0  0  0  0  0  0  0  0  0
    4.5310    2.0820    0.0000 C   0  0  0  0  0  0  0  0  0  0  0  0
    2.3640    1.6410    0.0000 C   0  0  0  0  0  0  0  0  0  0  0  0
    5.2780    0.7990    0.0000 C   0  0  0  0  0  0  0  0  0  0  0  0
    5.2780    1.6580    0.0000 C   0  0  0  0  0  0  0  0  0  0  0  0
  1 20  1  0  0  0  0
  2 16  1  0  0  0  0
  3 16  1  0  0  0  0
  4 16  1  0  0  0  0
  5 11  1  0  0  0  0
  5 19  1  0  0  0  0
  6 19  2  0  0  0  0
  7 15  1  0  0  0  0
  7 19  1  0  0  0  0
  8  9  1  0  0  0  0
  8 10  1  0  0  0  0
  8 12  1  0  0  0  0
  9 10  1  0  0  0  0
 11 13  1  0  0  0  0
 11 14  1  6  0  0  0
 11 16  1  0  0  0  0
 12 14  3  0  0  0  0
 13 15  1  0  0  0  0
 13 17  2  0  0  0  0
 15 18  2  0  0  0  0
 17 20  1  0  0  0  0
 18 21  1  0  0  0  0
 20 21  2  0  0  0  0
M  END
>  <DATABASE_ID>
DB00625

>  <DATABASE_NAME>
drugbank

>  <SMILES>
Clc1cc2c(NC(O[C@]2(C#CC2CC2)C(F)(F)F)=O)cc1

>  <INCHI_IDENTIFIER>
InChI=1S/C14H9ClF3NO2/c15-9-3-4-11-10(7-9)13(14(16,17)18,21-12(20)19-11)6-5-8-1-2-8/h3-4,7-8H,1-2H2,(H,19,20)/t13-/m0/s1

>  <INCHI_KEY>
InChIKey=XPOQHMRABVBWPR-ZDUSSCGKSA-N

>  <JCHEM_ACCEPTOR_COUNT>
2

>  <JCHEM_AVERAGE_POLARIZABILITY>
26.811455

>  <JCHEM_BIOAVAILABILITY>
1

>  <JCHEM_DONOR_COUNT>
1

>  <JCHEM_EXACT_MASS>
315.0274

>  <JCHEM_FORMAL_CHARGE>
0

>  <JCHEM_FORMULA>
C14H9ClF3NO2

>  <JCHEM_GHOSE_FILTER>
1

>  <JCHEM_IUPAC>
(4S)-6-chloro-4-(2-cyclopropylethynyl)-4-(trifluoromethyl)-2,4-dihydro-1H-3,1-benzoxazin-2-one

>  <ALOGPS_LOGP>
3.8900001

>  <JCHEM_LOGP>
4.4565263

>  <ALOGPS_LOGS>
-4.5700002

>  <JCHEM_MASS>
315.67499

>  <JCHEM_MDDR_LIKE_RULE>
0

>  <JCHEM_NUMBER_OF_RINGS>
3

>  <JCHEM_PHYSIOLOGICAL_CHARGE>
0

>  <JCHEM_PKA_STRONGEST_ACIDIC>
12.523443

>  <JCHEM_PKA_STRONGEST_BASIC>
-1.4900396

>  <JCHEM_POLAR_SURFACE_AREA>
38.330002

>  <JCHEM_REFRACTIVITY>
71.3423

>  <JCHEM_ROTATABLE_BOND_COUNT>
3

>  <JCHEM_RULE_OF_FIVE>
1

>  <ALOGPS_SOLUBILITY>
8.55e-03 g/l

>  <JCHEM_TRADITIONAL_IUPAC>
efavirenz

>  <JCHEM_VEBER_RULE>
1

>  <DRUGBANK_ID>
DB00625

>  <DRUG_GROUPS>
approved; investigational

>  <GENERIC_NAME>
Efavirenz

>  <SYNONYMS>
Efavirenz; Éfavirenz; Efavirenzum

>  <BRANDS>
E.F; Efavir; Efavirenz; Efcure; Efferven; Estiva; Evirenz; Stocrin; Sustiva; Viranz

$$$$
Niacin
 OpenBabel02121510022D

  9  9  0  0  0  0  0  0  0  0999 V2000
    3.0790    1.1880    0.0000 O   0  0  0  0  0  0  0  0  0  0  0  0
    1.6500    1.1880    0.0000 O   0  0  0  0  0  0  0  0  0  0  0  0
    1.6500   -1.2870    0.0000 N   0  0  0  0  0  0  0  0  0  0  0  0
    2.3640   -0.0500    0.0000 C   0  0  0  0  0  0  0  0  0  0  0  0
    3.0790   -0.4620    0.0000 C   0  0  0  0  0  0  0  0  0  0  0  0
    1.6500   -0.4620    0.0000 C   0  0  0  0  0  0  0  0  0  0  0  0
    3.0790   -1.2870    0.0000 C   0  0  0  0  0  0  0  0  0  0  0  0
    2.3640   -1.7000    0.0000 C   0  0  0  0  0  0  0  0  0  0  0  0
    2.3640    0.7760    0.0000 C   0  0  0  0  0  0  0  0  0  0  0  0
  1  9  1  0  0  0  0
  2  9  2  0  0  0  0
  3  6  2  0  0  0  0
  3  8  1  0  0  0  0
  4  5  2  0  0  0  0
  4  6  1  0  0  0  0
  4  9  1  0  0  0  0
  5  7  1  0  0  0  0
  7  8  2  0  0  0  0
M  END
>  <DATABASE_ID>
DB00627

>  <DATABASE_NAME>
drugbank

>  <SMILES>
OC(=O)c1cccnc1

>  <INCHI_IDENTIFIER>
InChI=1S/C6H5NO2/c8-6(9)5-2-1-3-7-4-5/h1-4H,(H,8,9)

>  <INCHI_KEY>
InChIKey=PVNIIMVLHYAWGP-UHFFFAOYSA-N

>  <JCHEM_ACCEPTOR_COUNT>
3

>  <JCHEM_AVERAGE_POLARIZABILITY>
11.303434

>  <JCHEM_BIOAVAILABILITY>
1

>  <JCHEM_DONOR_COUNT>
1

>  <JCHEM_EXACT_MASS>
123.03203

>  <JCHEM_FORMAL_CHARGE>
0

>  <JCHEM_FORMULA>
C6H5NO2

>  <JCHEM_GHOSE_FILTER>
0

>  <JCHEM_IUPAC>
pyridine-3-carboxylic acid

>  <ALOGPS_LOGP>
0.28999999

>  <JCHEM_LOGP>
-0.16644564

>  <ALOGPS_LOGS>
-0.17

>  <JCHEM_MASS>
123.1094

>  <JCHEM_MDDR_LIKE_RULE>
0

>  <JCHEM_NUMBER_OF_RINGS>
1

>  <JCHEM_PHYSIOLOGICAL_CHARGE>
-1

>  <JCHEM_PKA_STRONGEST_ACIDIC>
2.7856104

>  <JCHEM_PKA_STRONGEST_BASIC>
4.1932507

>  <JCHEM_POLAR_SURFACE_AREA>
50.189999

>  <JCHEM_REFRACTIVITY>
31.157301

>  <JCHEM_ROTATABLE_BOND_COUNT>
1

>  <JCHEM_RULE_OF_FIVE>
1

>  <ALOGPS_SOLUBILITY>
8.31e+01 g/l

>  <JCHEM_TRADITIONAL_IUPAC>
niacin

>  <JCHEM_VEBER_RULE>
0

>  <DRUGBANK_ID>
DB00627

>  <DRUG_GROUPS>
approved; investigational; nutraceutical

>  <GENERIC_NAME>
Niacin

>  <SYNONYMS>
3-carboxypyridine; 3-Pyridinecarboxylic acid; 3-Pyridylcarboxylic acid; Acide Nicotinique; Acidum Nicotinicum; M-Pyridinecarboxylic Acid; Nicotinic Acid; pyridine-β-carboxylic acid; Vitamin B3; β-pyridinecarboxylic acid

>  <BRANDS>
Niacor; Niaspan

$$$$
Clorazepate
 OpenBabel02121510022D

 22 24  0  0  1  0  0  0  0  0999 V2000
    2.5470   -2.7000    0.0000 Cl  0  0  0  0  0  0  0  0  0  0  0  0
    2.3400    2.0180    0.0000 O   0  0  0  0  0  0  0  0  0  0  0  0
    4.7040    2.0800    0.0000 O   0  0  0  0  0  0  0  0  0  0  0  0
    3.4160    2.7000    0.0000 O   0  0  0  0  0  0  0  0  0  0  0  0
    2.1840    0.6300    0.0000 N   0  0  0  0  0  0  0  0  0  0  0  0
    4.0370    0.6300    0.0000 N   0  0  0  0  0  0  0  0  0  0  0  0
    3.1110   -0.5320    0.0000 C   0  0  0  0  0  0  0  0  0  0  0  0
    3.8540   -0.1740    0.0000 C   0  0  0  0  0  0  0  0  0  0  0  0
    2.3670   -0.1740    0.0000 C   0  0  0  0  0  0  0  0  0  0  0  0
    3.5230    1.2750    0.0000 C   0  0  3  0  0  0  0  0  0  0  0  0
    4.4990   -0.6890    0.0000 C   0  0  0  0  0  0  0  0  0  0  0  0
    2.6980    1.2750    0.0000 C   0  0  0  0  0  0  0  0  0  0  0  0
    3.1880   -1.3880    0.0000 C   0  0  0  0  0  0  0  0  0  0  0  0
    1.6500   -0.6470    0.0000 C   0  0  0  0  0  0  0  0  0  0  0  0
    2.4820   -1.8780    0.0000 C   0  0  0  0  0  0  0  0  0  0  0  0
    1.7080   -1.5050    0.0000 C   0  0  0  0  0  0  0  0  0  0  0  0
    5.2670   -0.3870    0.0000 C   0  0  0  0  0  0  0  0  0  0  0  0
    4.3760   -1.5040    0.0000 C   0  0  0  0  0  0  0  0  0  0  0  0
    3.8810    2.0180    0.0000 C   0  0  0  0  0  0  0  0  0  0  0  0
    5.9120   -0.9020    0.0000 C   0  0  0  0  0  0  0  0  0  0  0  0
    5.0210   -2.0190    0.0000 C   0  0  0  0  0  0  0  0  0  0  0  0
    5.7890   -1.7170    0.0000 C   0  0  0  0  0  0  0  0  0  0  0  0
  1 15  1  0  0  0  0
  2 12  2  0  0  0  0
  3 19  1  0  0  0  0
  4 19  2  0  0  0  0
  5  9  1  0  0  0  0
  5 12  1  0  0  0  0
  6  8  2  0  0  0  0
  6 10  1  0  0  0  0
  7  8  1  0  0  0  0
  7  9  2  0  0  0  0
  7 13  1  0  0  0  0
  8 11  1  0  0  0  0
  9 14  1  0  0  0  0
 10 12  1  0  0  0  0
 10 19  1  0  0  0  0
 11 17  2  0  0  0  0
 11 18  1  0  0  0  0
 13 15  2  0  0  0  0
 14 16  2  0  0  0  0
 15 16  1  0  0  0  0
 17 20  1  0  0  0  0
 18 21  2  0  0  0  0
 20 22  2  0  0  0  0
 21 22  1  0  0  0  0
M  END
>  <DATABASE_ID>
DB00628

>  <DATABASE_NAME>
drugbank

>  <SMILES>
Clc1cc2c(NC(=O)C(N=C2c2ccccc2)C(O)=O)cc1

>  <INCHI_IDENTIFIER>
InChI=1S/C16H11ClN2O3/c17-10-6-7-12-11(8-10)13(9-4-2-1-3-5-9)19-14(16(21)22)15(20)18-12/h1-8,14H,(H,18,20)(H,21,22)

>  <INCHI_KEY>
InChIKey=XDDJGVMJFWAHJX-UHFFFAOYSA-N

>  <JCHEM_ACCEPTOR_COUNT>
4

>  <JCHEM_AVERAGE_POLARIZABILITY>
30.625736

>  <JCHEM_BIOAVAILABILITY>
1

>  <JCHEM_DONOR_COUNT>
2

>  <JCHEM_EXACT_MASS>
314.04581

>  <JCHEM_FORMAL_CHARGE>
0

>  <JCHEM_FORMULA>
C16H11ClN2O3

>  <JCHEM_GHOSE_FILTER>
1

>  <JCHEM_IUPAC>
7-chloro-2-oxo-5-phenyl-2,3-dihydro-1H-1,4-benzodiazepine-3-carboxylic acid

>  <ALOGPS_LOGP>
2.6800001

>  <JCHEM_LOGP>
3.2063386

>  <ALOGPS_LOGS>
-4.0999999

>  <JCHEM_MASS>
314.72299

>  <JCHEM_MDDR_LIKE_RULE>
0

>  <JCHEM_NUMBER_OF_RINGS>
3

>  <JCHEM_PHYSIOLOGICAL_CHARGE>
-1

>  <JCHEM_PKA>
12.233953

>  <JCHEM_PKA_STRONGEST_ACIDIC>
3.3205173

>  <JCHEM_PKA_STRONGEST_BASIC>
-0.64266181

>  <JCHEM_POLAR_SURFACE_AREA>
78.760002

>  <JCHEM_REFRACTIVITY>
82.676102

>  <JCHEM_ROTATABLE_BOND_COUNT>
2

>  <JCHEM_RULE_OF_FIVE>
1

>  <ALOGPS_SOLUBILITY>
2.48e-02 g/l

>  <JCHEM_TRADITIONAL_IUPAC>
clorazepate

>  <JCHEM_VEBER_RULE>
0

>  <DRUGBANK_ID>
DB00628

>  <DRUG_GROUPS>
approved; illicit

>  <GENERIC_NAME>
Clorazepate

>  <SYNONYMS>
Clorazepic acid

>  <BRANDS>
Anksen; Calner; Cloranxen; Clorazepatum; Clozene; Dipot; Flulium; Gen-xene; Justum; Manotran; Medipax; Mendon; Polizep; Tencilan; Trancap; Transene; Tranxen; Tranxène; Tranxene; Tranxene T-Tab; Tranxilene; Tranxilium; Zetran-5

>  <SALTS>
Clorazepate dipotassium

$$$$
Alendronate
 OpenBabel02121510022D

 14 13  0  0  0  0  0  0  0  0999 V2000
    4.2360   -0.4850    0.0000 P   0  0  0  0  0  0  0  0  0  0  0  0
    2.8080   -1.3100    0.0000 P   0  0  0  0  0  0  0  0  0  0  0  0
    3.9340   -1.6120    0.0000 O   0  0  0  0  0  0  0  0  0  0  0  0
    4.9510   -0.0730    0.0000 O   0  0  0  0  0  0  0  0  0  0  0  0
    4.6490   -1.2000    0.0000 O   0  0  0  0  0  0  0  0  0  0  0  0
    2.0930   -1.7230    0.0000 O   0  0  0  0  0  0  0  0  0  0  0  0
    2.3950   -0.5960    0.0000 O   0  0  0  0  0  0  0  0  0  0  0  0
    4.2360    0.3400    0.0000 O   0  0  0  0  0  0  0  0  0  0  0  0
    2.8080   -2.1350    0.0000 O   0  0  0  0  0  0  0  0  0  0  0  0
    2.3950    1.8790    0.0000 N   0  0  0  0  0  0  0  0  0  0  0  0
    3.5220   -0.8980    0.0000 C   0  0  0  0  0  0  0  0  0  0  0  0
    3.1100   -0.1830    0.0000 C   0  0  0  0  0  0  0  0  0  0  0  0
    3.1100    0.6420    0.0000 C   0  0  0  0  0  0  0  0  0  0  0  0
    2.3950    1.0540    0.0000 C   0  0  0  0  0  0  0  0  0  0  0  0
  1  4  1  0  0  0  0
  1  5  1  0  0  0  0
  1  8  2  0  0  0  0
  1 11  1  0  0  0  0
  2  6  1  0  0  0  0
  2  7  1  0  0  0  0
  2  9  2  0  0  0  0
  2 11  1  0  0  0  0
  3 11  1  0  0  0  0
 10 14  1  0  0  0  0
 11 12  1  0  0  0  0
 12 13  1  0  0  0  0
 13 14  1  0  0  0  0
M  END
>  <DATABASE_ID>
DB00630

>  <DATABASE_NAME>
drugbank

>  <SMILES>
P(O)(O)(=O)C(P(O)(O)=O)(O)CCCN

>  <INCHI_IDENTIFIER>
InChI=1S/C4H13NO7P2/c5-3-1-2-4(6,13(7,8)9)14(10,11)12/h6H,1-3,5H2,(H2,7,8,9)(H2,10,11,12)

>  <INCHI_KEY>
InChIKey=OGSPWJRAVKPPFI-UHFFFAOYSA-N

>  <JCHEM_ACCEPTOR_COUNT>
8

>  <JCHEM_AVERAGE_POLARIZABILITY>
19.39735

>  <JCHEM_BIOAVAILABILITY>
1

>  <JCHEM_DONOR_COUNT>
6

>  <JCHEM_EXACT_MASS>
249.01672

>  <JCHEM_FORMAL_CHARGE>
0

>  <JCHEM_FORMULA>
C4H13NO7P2

>  <JCHEM_GHOSE_FILTER>
0

>  <JCHEM_IUPAC>
(4-amino-1-hydroxy-1-phosphonobutyl)phosphonic acid

>  <ALOGPS_LOGP>
-1.34

>  <JCHEM_LOGP>
-4.1909981

>  <ALOGPS_LOGS>
-1.17

>  <JCHEM_MASS>
249.09599

>  <JCHEM_MDDR_LIKE_RULE>
0

>  <JCHEM_NUMBER_OF_RINGS>
0

>  <JCHEM_PHYSIOLOGICAL_CHARGE>
-1

>  <JCHEM_PKA>
1.4533346

>  <JCHEM_PKA_STRONGEST_ACIDIC>
0.69048136

>  <JCHEM_PKA_STRONGEST_BASIC>
9.9106865

>  <JCHEM_POLAR_SURFACE_AREA>
161.31

>  <JCHEM_REFRACTIVITY>
47.373798

>  <JCHEM_ROTATABLE_BOND_COUNT>
5

>  <JCHEM_RULE_OF_FIVE>
0

>  <ALOGPS_SOLUBILITY>
1.69e+01 g/l

>  <JCHEM_TRADITIONAL_IUPAC>
4-amino-1-hydroxy-1-phosphonobutylphosphonic acid

>  <JCHEM_VEBER_RULE>
0

>  <DRUGBANK_ID>
DB00630

>  <DRUG_GROUPS>
approved

>  <GENERIC_NAME>
Alendronate

>  <SYNONYMS>
Acide Alendronique; Acido Alendronico; Acidum Alendronicum; Alendronic acid

>  <BRANDS>
Alenotop; Alned; Arendal; Beenos; Berlex; Binosto; Denfos; Densidron; Dronat; Durost; Fixopan; Forosa; Fosagen; Fosalen; Fosamax; Fosmin; Fostolin; Fosval; Huesobone; Lendrate; Oseolen; Ostemax

>  <SALTS>
Alendronate Sodium

$$$$
Prednisone
 OpenBabel02121510022D

 29 32  0  0  1  0  0  0  0  0999 V2000
    6.6260    1.5370    0.0000 O   0  0  0  0  0  0  0  0  0  0  0  0
    3.9560    0.9130    0.0000 O   0  0  0  0  0  0  0  0  0  0  0  0
    7.4630    2.0560    0.0000 O   0  0  0  0  0  0  0  0  0  0  0  0
    8.9700    1.3820    0.0000 O   0  0  0  0  0  0  0  0  0  0  0  0
    1.6500   -2.0180    0.0000 O   0  0  0  0  0  0  0  0  0  0  0  0
    6.0990    0.5000    0.0000 C   0  0  1  0  0  0  0  0  0  0  0  0
    6.0990   -0.3250    0.0000 C   0  0  2  0  0  0  0  0  0  0  0  0
    5.3850   -0.7370    0.0000 C   0  0  1  0  0  0  0  0  0  0  0  0
    4.6700   -0.3250    0.0000 C   0  0  1  0  0  0  0  0  0  0  0  0
    6.8800    0.7520    0.0000 C   0  0  1  0  0  0  0  0  0  0  0  0
    6.8800   -0.5760    0.0000 C   0  0  0  0  0  0  0  0  0  0  0  0
    5.3850    0.9130    0.0000 C   0  0  0  0  0  0  0  0  0  0  0  0
    7.3610    0.0880    0.0000 C   0  0  0  0  0  0  0  0  0  0  0  0
    3.9200   -0.7430    0.0000 C   0  0  1  0  0  0  0  0  0  0  0  0
    5.3980   -1.5970    0.0000 C   0  0  0  0  0  0  0  0  0  0  0  0
    4.6700    0.5000    0.0000 C   0  0  0  0  0  0  0  0  0  0  0  0
    6.0990    1.3250    0.0000 C   0  0  0  0  0  0  0  0  0  0  0  0
    4.6570   -2.0320    0.0000 C   0  0  0  0  0  0  0  0  0  0  0  0
    3.9130   -1.6020    0.0000 C   0  0  0  0  0  0  0  0  0  0  0  0
    7.5480    1.2350    0.0000 C   0  0  0  0  0  0  0  0  0  0  0  0
    3.9260    0.0820    0.0000 C   0  0  0  0  0  0  0  0  0  0  0  0
    3.1550   -0.2780    0.0000 C   0  0  0  0  0  0  0  0  0  0  0  0
    3.1410   -2.0560    0.0000 C   0  0  0  0  0  0  0  0  0  0  0  0
    8.3010    0.8980    0.0000 C   0  0  0  0  0  0  0  0  0  0  0  0
    2.3730   -0.7130    0.0000 C   0  0  0  0  0  0  0  0  0  0  0  0
    2.3660   -1.6080    0.0000 C   0  0  0  0  0  0  0  0  0  0  0  0
    6.1690   -0.9810    0.0000 H   0  0  0  0  0  0  0  0  0  0  0  0
    5.9590   -1.0630    0.0000 H   0  0  0  0  0  0  0  0  0  0  0  0
    5.2420    0.0050    0.0000 H   0  0  0  0  0  0  0  0  0  0  0  0
  2 16  2  0  0  0  0
  3 20  2  0  0  0  0
  4 24  1  0  0  0  0
  5 26  2  0  0  0  0
  6  7  1  0  0  0  0
  6 10  1  0  0  0  0
  6 12  1  0  0  0  0
  6 17  1  1  0  0  0
  7  8  1  0  0  0  0
  7 11  1  0  0  0  0
  7 27  1  6  0  0  0
  8  9  1  0  0  0  0
  8 15  1  0  0  0  0
  8 28  1  1  0  0  0
  9 14  1  0  0  0  0
  9 16  1  0  0  0  0
  9 29  1  6  0  0  0
 10  1  1  6  0  0  0
 10 13  1  0  0  0  0
 10 20  1  0  0  0  0
 11 13  1  0  0  0  0
 12 16  1  0  0  0  0
 14 19  1  0  0  0  0
 14 21  1  1  0  0  0
 14 22  1  0  0  0  0
 15 18  1  0  0  0  0
 18 19  1  0  0  0  0
 19 23  2  0  0  0  0
 20 24  1  0  0  0  0
 22 25  2  0  0  0  0
 23 26  1  0  0  0  0
 25 26  1  0  0  0  0
M  END
>  <DATABASE_ID>
DB00635

>  <DATABASE_NAME>
drugbank

>  <SMILES>
O=C1C=C2CC[C@@H]3[C@@H]([C@]2(C=C1)C)C(=O)C[C@]1([C@H]3CC[C@]1(O)C(=O)CO)C

>  <INCHI_IDENTIFIER>
InChI=1S/C21H26O5/c1-19-7-5-13(23)9-12(19)3-4-14-15-6-8-21(26,17(25)11-22)20(15,2)10-16(24)18(14)19/h5,7,9,14-15,18,22,26H,3-4,6,8,10-11H2,1-2H3/t14-,15-,18+,19-,20-,21-/m0/s1

>  <INCHI_KEY>
InChIKey=XOFYZVNMUHMLCC-ZPOLXVRWSA-N

>  <JCHEM_ACCEPTOR_COUNT>
5

>  <JCHEM_AVERAGE_POLARIZABILITY>
38.167179

>  <JCHEM_BIOAVAILABILITY>
1

>  <JCHEM_DONOR_COUNT>
2

>  <JCHEM_EXACT_MASS>
358.17801

>  <JCHEM_FORMAL_CHARGE>
0

>  <JCHEM_FORMULA>
C21H26O5

>  <JCHEM_GHOSE_FILTER>
1

>  <JCHEM_IUPAC>
(1S,2R,10S,11S,14R,15S)-14-hydroxy-14-(2-hydroxyacetyl)-2,15-dimethyltetracyclo[8.7.0.0^{2,7}.0^{11,15}]heptadeca-3,6-diene-5,17-dione

>  <ALOGPS_LOGP>
2.0699999

>  <JCHEM_LOGP>
1.6585041

>  <ALOGPS_LOGS>
-3.51

>  <JCHEM_MASS>
358.4281

>  <JCHEM_MDDR_LIKE_RULE>
0

>  <JCHEM_NUMBER_OF_RINGS>
4

>  <JCHEM_PHYSIOLOGICAL_CHARGE>
0

>  <JCHEM_PKA>
13.904476

>  <JCHEM_PKA_STRONGEST_ACIDIC>
12.576199

>  <JCHEM_PKA_STRONGEST_BASIC>
-3.3299892

>  <JCHEM_POLAR_SURFACE_AREA>
91.669998

>  <JCHEM_REFRACTIVITY>
97.5681

>  <JCHEM_ROTATABLE_BOND_COUNT>
2

>  <JCHEM_RULE_OF_FIVE>
1

>  <ALOGPS_SOLUBILITY>
1.11e-01 g/l

>  <JCHEM_TRADITIONAL_IUPAC>
prednisone

>  <JCHEM_VEBER_RULE>
0

>  <DRUGBANK_ID>
DB00635

>  <DRUG_GROUPS>
approved

>  <GENERIC_NAME>
Prednisone

>  <SYNONYMS>
1,2-Dehydrocortisone; Dehydrocortisone; Prednisona; Prednisonum

>  <BRANDS>
Delta-Cortef; Meticorten; Orasone; Rayos

$$$$
Clofibrate
 OpenBabel02121510022D

 16 16  0  0  0  0  0  0  0  0999 V2000
    2.3640   -3.0940    0.0000 Cl  0  0  0  0  0  0  0  0  0  0  0  0
    2.3640    0.2060    0.0000 O   0  0  0  0  0  0  0  0  0  0  0  0
    3.7940    1.8560    0.0000 O   0  0  0  0  0  0  0  0  0  0  0  0
    4.5080    0.6190    0.0000 O   0  0  0  0  0  0  0  0  0  0  0  0
    3.0790    0.6190    0.0000 C   0  0  0  0  0  0  0  0  0  0  0  0
    2.6660    1.3330    0.0000 C   0  0  0  0  0  0  0  0  0  0  0  0
    3.4920   -0.0960    0.0000 C   0  0  0  0  0  0  0  0  0  0  0  0
    3.7940    1.0310    0.0000 C   0  0  0  0  0  0  0  0  0  0  0  0
    2.3640   -0.6190    0.0000 C   0  0  0  0  0  0  0  0  0  0  0  0
    4.5080    2.2690    0.0000 C   0  0  0  0  0  0  0  0  0  0  0  0
    3.0790   -1.0310    0.0000 C   0  0  0  0  0  0  0  0  0  0  0  0
    1.6500   -1.0310    0.0000 C   0  0  0  0  0  0  0  0  0  0  0  0
    3.0790   -1.8560    0.0000 C   0  0  0  0  0  0  0  0  0  0  0  0
    1.6500   -1.8560    0.0000 C   0  0  0  0  0  0  0  0  0  0  0  0
    4.5080    3.0940    0.0000 C   0  0  0  0  0  0  0  0  0  0  0  0
    2.3640   -2.2690    0.0000 C   0  0  0  0  0  0  0  0  0  0  0  0
  1 16  1  0  0  0  0
  2  5  1  0  0  0  0
  2  9  1  0  0  0  0
  3  8  1  0  0  0  0
  3 10  1  0  0  0  0
  4  8  2  0  0  0  0
  5  6  1  0  0  0  0
  5  7  1  0  0  0  0
  5  8  1  0  0  0  0
  9 11  2  0  0  0  0
  9 12  1  0  0  0  0
 10 15  1  0  0  0  0
 11 13  1  0  0  0  0
 12 14  2  0  0  0  0
 13 16  2  0  0  0  0
 14 16  1  0  0  0  0
M  END
>  <DATABASE_ID>
DB00636

>  <DATABASE_NAME>
drugbank

>  <SMILES>
Clc1ccc(OC(C(OCC)=O)(C)C)cc1

>  <INCHI_IDENTIFIER>
InChI=1S/C12H15ClO3/c1-4-15-11(14)12(2,3)16-10-7-5-9(13)6-8-10/h5-8H,4H2,1-3H3

>  <INCHI_KEY>
InChIKey=KNHUKKLJHYUCFP-UHFFFAOYSA-N

>  <JCHEM_ACCEPTOR_COUNT>
2

>  <JCHEM_AVERAGE_POLARIZABILITY>
24.695845

>  <JCHEM_BIOAVAILABILITY>
1

>  <JCHEM_DONOR_COUNT>
0

>  <JCHEM_EXACT_MASS>
242.07097

>  <JCHEM_FORMAL_CHARGE>
0

>  <JCHEM_FORMULA>
C12H15ClO3

>  <JCHEM_GHOSE_FILTER>
1

>  <JCHEM_IUPAC>
ethyl 2-(4-chlorophenoxy)-2-methylpropanoate

>  <ALOGPS_LOGP>
3.99

>  <JCHEM_LOGP>
3.4018347

>  <ALOGPS_LOGS>
-3.9200001

>  <JCHEM_MASS>
242.69901

>  <JCHEM_MDDR_LIKE_RULE>
0

>  <JCHEM_NUMBER_OF_RINGS>
1

>  <JCHEM_PHYSIOLOGICAL_CHARGE>
0

>  <JCHEM_PKA_STRONGEST_BASIC>
-4.9174051

>  <JCHEM_POLAR_SURFACE_AREA>
35.529999

>  <JCHEM_REFRACTIVITY>
62.135502

>  <JCHEM_ROTATABLE_BOND_COUNT>
5

>  <JCHEM_RULE_OF_FIVE>
1

>  <ALOGPS_SOLUBILITY>
2.90e-02 g/l

>  <JCHEM_TRADITIONAL_IUPAC>
clofibrate

>  <JCHEM_VEBER_RULE>
1

>  <DRUGBANK_ID>
DB00636

>  <DRUG_GROUPS>
approved

>  <GENERIC_NAME>
Clofibrate

>  <SYNONYMS>
2-(4-Chlorophenoxy)-2-methylpropanoic acid ethyl ester; 2-(p-Chlorophenoxy)-2-methylpropionic acid ethyl ester; alpha-(p-Chlorophenoxy)isobutyric acid, ethyl ester; alpha-p-Chlorophenoxyisobutyryl ethyl ester; Clofibrato; Clofibratum; EPIB; Ethyl chlorophenoxyisobutyrate; Ethyl clofibrate

>  <BRANDS>
Alufibrate; Atromid-S; Binograc; Clobrate; Clofibrate; Hisunsero; Koliva; Myanlin

$$$$
Astemizole
 OpenBabel02121510022D

 34 38  0  0  0  0  0  0  0  0999 V2000
    1.9120    4.8100    0.0000 F   0  0  0  0  0  0  0  0  0  0  0  0
    9.2910   -4.8100    0.0000 O   0  0  0  0  0  0  0  0  0  0  0  0
    6.4040   -1.2380    0.0000 N   0  0  0  0  0  0  0  0  0  0  0  0
    5.1660    0.9060    0.0000 N   0  0  0  0  0  0  0  0  0  0  0  0
    3.8600    1.5700    0.0000 N   0  0  0  0  0  0  0  0  0  0  0  0
    3.8600    0.2420    0.0000 N   0  0  0  0  0  0  0  0  0  0  0  0
    5.5790    0.1910    0.0000 C   0  0  0  0  0  0  0  0  0  0  0  0
    5.1660   -0.5230    0.0000 C   0  0  0  0  0  0  0  0  0  0  0  0
    6.4040    0.1910    0.0000 C   0  0  0  0  0  0  0  0  0  0  0  0
    5.5790   -1.2380    0.0000 C   0  0  0  0  0  0  0  0  0  0  0  0
    6.8160   -0.5230    0.0000 C   0  0  0  0  0  0  0  0  0  0  0  0
    6.8160   -1.9520    0.0000 C   0  0  0  0  0  0  0  0  0  0  0  0
    7.6410   -1.9520    0.0000 C   0  0  0  0  0  0  0  0  0  0  0  0
    4.3410    0.9060    0.0000 C   0  0  0  0  0  0  0  0  0  0  0  0
    8.0540   -2.6670    0.0000 C   0  0  0  0  0  0  0  0  0  0  0  0
    3.0790    1.3180    0.0000 C   0  0  0  0  0  0  0  0  0  0  0  0
    4.1160    2.3540    0.0000 C   0  0  0  0  0  0  0  0  0  0  0  0
    3.0790    0.4930    0.0000 C   0  0  0  0  0  0  0  0  0  0  0  0
    2.3640    1.7310    0.0000 C   0  0  0  0  0  0  0  0  0  0  0  0
    3.5650    2.9680    0.0000 C   0  0  0  0  0  0  0  0  0  0  0  0
    8.8790   -2.6670    0.0000 C   0  0  0  0  0  0  0  0  0  0  0  0
    7.6410   -3.3810    0.0000 C   0  0  0  0  0  0  0  0  0  0  0  0
    2.3640    0.0810    0.0000 C   0  0  0  0  0  0  0  0  0  0  0  0
    1.6500    1.3180    0.0000 C   0  0  0  0  0  0  0  0  0  0  0  0
    1.6500    0.4930    0.0000 C   0  0  0  0  0  0  0  0  0  0  0  0
    9.2910   -3.3810    0.0000 C   0  0  0  0  0  0  0  0  0  0  0  0
    8.0540   -4.0960    0.0000 C   0  0  0  0  0  0  0  0  0  0  0  0
    2.7580    2.7980    0.0000 C   0  0  0  0  0  0  0  0  0  0  0  0
    3.8210    3.7520    0.0000 C   0  0  0  0  0  0  0  0  0  0  0  0
    8.8790   -4.0960    0.0000 C   0  0  0  0  0  0  0  0  0  0  0  0
    2.2070    3.4120    0.0000 C   0  0  0  0  0  0  0  0  0  0  0  0
    3.2700    4.3660    0.0000 C   0  0  0  0  0  0  0  0  0  0  0  0
    2.4630    4.1960    0.0000 C   0  0  0  0  0  0  0  0  0  0  0  0
   10.1160   -4.8100    0.0000 C   0  0  0  0  0  0  0  0  0  0  0  0
  1 33  1  0  0  0  0
  2 30  1  0  0  0  0
  2 34  1  0  0  0  0
  3 10  1  0  0  0  0
  3 11  1  0  0  0  0
  3 12  1  0  0  0  0
  4  7  1  0  0  0  0
  4 14  1  0  0  0  0
  5 14  1  0  0  0  0
  5 16  1  0  0  0  0
  5 17  1  0  0  0  0
  6 14  2  0  0  0  0
  6 18  1  0  0  0  0
  7  8  1  0  0  0  0
  7  9  1  0  0  0  0
  8 10  1  0  0  0  0
  9 11  1  0  0  0  0
 12 13  1  0  0  0  0
 13 15  1  0  0  0  0
 15 21  2  0  0  0  0
 15 22  1  0  0  0  0
 16 18  2  0  0  0  0
 16 19  1  0  0  0  0
 17 20  1  0  0  0  0
 18 23  1  0  0  0  0
 19 24  2  0  0  0  0
 20 28  2  0  0  0  0
 20 29  1  0  0  0  0
 21 26  1  0  0  0  0
 22 27  2  0  0  0  0
 23 25  2  0  0  0  0
 24 25  1  0  0  0  0
 26 30  2  0  0  0  0
 27 30  1  0  0  0  0
 28 31  1  0  0  0  0
 29 32  2  0  0  0  0
 31 33  2  0  0  0  0
 32 33  1  0  0  0  0
M  END
>  <DATABASE_ID>
DB00637

>  <DATABASE_NAME>
drugbank

>  <SMILES>
Fc1ccc(cc1)Cn1c2c(nc1NC1CCN(CC1)CCc1ccc(OC)cc1)cccc2

>  <INCHI_IDENTIFIER>
InChI=1S/C28H31FN4O/c1-34-25-12-8-21(9-13-25)14-17-32-18-15-24(16-19-32)30-28-31-26-4-2-3-5-27(26)33(28)20-22-6-10-23(29)11-7-22/h2-13,24H,14-20H2,1H3,(H,30,31)

>  <INCHI_KEY>
InChIKey=GXDALQBWZGODGZ-UHFFFAOYSA-N

>  <JCHEM_ACCEPTOR_COUNT>
4

>  <JCHEM_AVERAGE_POLARIZABILITY>
52.075642

>  <JCHEM_BIOAVAILABILITY>
1

>  <JCHEM_DONOR_COUNT>
1

>  <JCHEM_EXACT_MASS>
458.2482

>  <JCHEM_FORMAL_CHARGE>
0

>  <JCHEM_FORMULA>
C28H31FN4O

>  <JCHEM_GHOSE_FILTER>
0

>  <JCHEM_IUPAC>
1-[(4-fluorophenyl)methyl]-N-{1-[2-(4-methoxyphenyl)ethyl]piperidin-4-yl}-1H-1,3-benzodiazol-2-amine

>  <ALOGPS_LOGP>
5.9200001

>  <JCHEM_LOGP>
5.3896523

>  <ALOGPS_LOGS>
-5.5799999

>  <JCHEM_MASS>
458.57031

>  <JCHEM_MDDR_LIKE_RULE>
1

>  <JCHEM_NUMBER_OF_RINGS>
5

>  <JCHEM_PHYSIOLOGICAL_CHARGE>
1

>  <JCHEM_PKA_STRONGEST_BASIC>
8.7508202

>  <JCHEM_POLAR_SURFACE_AREA>
42.32

>  <JCHEM_REFRACTIVITY>
135.6432

>  <JCHEM_ROTATABLE_BOND_COUNT>
8

>  <JCHEM_RULE_OF_FIVE>
0

>  <ALOGPS_SOLUBILITY>
1.20e-03 g/l

>  <JCHEM_TRADITIONAL_IUPAC>
astemizole

>  <JCHEM_VEBER_RULE>
0

>  <DRUGBANK_ID>
DB00637

>  <DRUG_GROUPS>
approved; withdrawn

>  <GENERIC_NAME>
Astemizole

>  <SYNONYMS>
Astemizol; Astemizol; Astémizole; Astemizolum

>  <BRANDS>
Acemiz; Alerkin; Astesen; Hismanal; Histalong; Lergibrumizol; Stemiz

$$$$
Simvastatin
 OpenBabel02121510022D

 31 33  0  0  1  0  0  0  0  0999 V2000
   -0.7140    0.8250    0.0000 C   0  0  2  0  0  0  0  0  0  0  0  0
    0.0000    0.4120    0.0000 C   0  0  1  0  0  0  0  0  0  0  0  0
    0.0000   -0.4120    0.0000 C   0  0  0  0  0  0  0  0  0  0  0  0
    0.7140    0.8250    0.0000 C   0  0  2  0  0  0  0  0  0  0  0  0
   -1.4290    0.4120    0.0000 C   0  0  0  0  0  0  0  0  0  0  0  0
    0.7140   -0.8250    0.0000 C   0  0  0  0  0  0  0  0  0  0  0  0
   -0.7140   -0.8250    0.0000 C   0  0  0  0  0  0  0  0  0  0  0  0
    1.4290    0.4120    0.0000 C   0  0  2  0  0  0  0  0  0  0  0  0
   -1.4290   -0.4120    0.0000 C   0  0  2  0  0  0  0  0  0  0  0  0
    1.4290   -0.4120    0.0000 C   0  0  0  0  0  0  0  0  0  0  0  0
    0.7170    1.6490    0.0000 C   0  0  0  0  0  0  0  0  0  0  0  0
   -2.1450   -0.8320    0.0000 C   0  0  0  0  0  0  0  0  0  0  0  0
   -0.0110    1.3300    0.0000 H   0  0  0  0  0  0  0  0  0  0  0  0
    2.1430    0.8160    0.0000 C   0  0  0  0  0  0  0  0  0  0  0  0
    1.4240    2.0540    0.0000 C   0  0  0  0  0  0  0  0  0  0  0  0
    1.4460    2.8690    0.0000 C   0  0  1  0  0  0  0  0  0  0  0  0
    2.1520    3.2850    0.0000 O   0  0  0  0  0  0  0  0  0  0  0  0
    2.1460    4.1000    0.0000 C   0  0  0  0  0  0  0  0  0  0  0  0
    1.4370    4.5020    0.0000 C   0  0  0  0  0  0  0  0  0  0  0  0
    0.7570    4.0870    0.0000 C   0  0  1  0  0  0  0  0  0  0  0  0
    0.7630    3.2720    0.0000 C   0  0  0  0  0  0  0  0  0  0  0  0
    0.0420    4.5010    0.0000 O   0  0  0  0  0  0  0  0  0  0  0  0
    2.8530    4.5160    0.0000 O   0  0  0  0  0  0  0  0  0  0  0  0
   -1.4320    2.8870    0.0000 O   0  0  0  0  0  0  0  0  0  0  0  0
   -1.4310    2.0620    0.0000 C   0  0  0  0  0  0  0  0  0  0  0  0
   -0.7160    1.6500    0.0000 O   0  0  0  0  0  0  0  0  0  0  0  0
   -2.8600    2.0590    0.0000 C   0  0  0  0  0  0  0  0  0  0  0  0
   -3.5740    1.6450    0.0000 C   0  0  0  0  0  0  0  0  0  0  0  0
   -1.9300    0.8510    0.0000 C   0  0  0  0  0  0  0  0  0  0  0  0
   -2.1450    1.6480    0.0000 C   0  0  0  0  0  0  0  0  0  0  0  0
   -2.3570    0.8510    0.0000 C   0  0  0  0  0  0  0  0  0  0  0  0
  1  2  1  0  0  0  0
  1  5  1  0  0  0  0
  1 26  1  6  0  0  0
  2  3  1  0  0  0  0
  2  4  1  0  0  0  0
  2 13  1  1  0  0  0
  3  6  1  0  0  0  0
  3  7  2  0  0  0  0
  4  8  1  0  0  0  0
  4 11  1  1  0  0  0
  5  9  1  0  0  0  0
  6 10  2  0  0  0  0
  7  9  1  0  0  0  0
  8 10  1  0  0  0  0
  8 14  1  1  0  0  0
  9 12  1  6  0  0  0
 11 15  1  0  0  0  0
 16 15  1  6  0  0  0
 16 17  1  0  0  0  0
 16 21  1  0  0  0  0
 17 18  1  0  0  0  0
 18 19  1  0  0  0  0
 18 23  2  0  0  0  0
 19 20  1  0  0  0  0
 20 21  1  0  0  0  0
 20 22  1  1  0  0  0
 24 25  2  0  0  0  0
 25 26  1  0  0  0  0
 25 30  1  0  0  0  0
 27 28  1  0  0  0  0
 27 30  1  0  0  0  0
 29 30  1  0  0  0  0
 30 31  1  0  0  0  0
M  END
>  <DATABASE_ID>
DB00641

>  <DATABASE_NAME>
drugbank

>  <SMILES>
O1[C@@H](C[C@@H](O)CC1=O)CC[C@@H]1[C@@H]2C(=C[C@@H](C[C@@H]2OC(=O)C(CC)(C)C)C)C=C[C@@H]1C

>  <INCHI_IDENTIFIER>
InChI=1S/C25H38O5/c1-6-25(4,5)24(28)30-21-12-15(2)11-17-8-7-16(3)20(23(17)21)10-9-19-13-18(26)14-22(27)29-19/h7-8,11,15-16,18-21,23,26H,6,9-10,12-14H2,1-5H3/t15-,16-,18+,19+,20-,21-,23-/m0/s1

>  <INCHI_KEY>
InChIKey=RYMZZMVNJRMUDD-HGQWONQESA-N

>  <JCHEM_ACCEPTOR_COUNT>
3

>  <JCHEM_AVERAGE_POLARIZABILITY>
47.85247

>  <JCHEM_BIOAVAILABILITY>
1

>  <JCHEM_DONOR_COUNT>
1

>  <JCHEM_EXACT_MASS>
418.27191

>  <JCHEM_FORMAL_CHARGE>
0

>  <JCHEM_FORMULA>
C25H38O5

>  <JCHEM_GHOSE_FILTER>
1

>  <JCHEM_IUPAC>
(1S,3R,7S,8S,8aR)-8-{2-[(2R,4R)-4-hydroxy-6-oxooxan-2-yl]ethyl}-3,7-dimethyl-1,2,3,7,8,8a-hexahydronaphthalen-1-yl 2,2-dimethylbutanoate

>  <ALOGPS_LOGP>
4.5100002

>  <JCHEM_LOGP>
4.4582014

>  <ALOGPS_LOGS>
-4.5300002

>  <JCHEM_MASS>
418.56619

>  <JCHEM_MDDR_LIKE_RULE>
1

>  <JCHEM_NUMBER_OF_RINGS>
3

>  <JCHEM_PHYSIOLOGICAL_CHARGE>
0

>  <JCHEM_PKA_STRONGEST_ACIDIC>
14.914537

>  <JCHEM_PKA_STRONGEST_BASIC>
-2.8361812

>  <JCHEM_POLAR_SURFACE_AREA>
72.830002

>  <JCHEM_REFRACTIVITY>
117.6834

>  <JCHEM_ROTATABLE_BOND_COUNT>
7

>  <JCHEM_RULE_OF_FIVE>
1

>  <ALOGPS_SOLUBILITY>
1.22e-02 g/l

>  <JCHEM_TRADITIONAL_IUPAC>
simvastatin

>  <JCHEM_VEBER_RULE>
0

>  <DRUGBANK_ID>
DB00641

>  <DRUG_GROUPS>
approved

>  <GENERIC_NAME>
Simvastatin

>  <SYNONYMS>
Simvastatina; Simvastatine; Simvastatinum; Synvinolin

>  <BRANDS>
Cholestat; Colemin; Labistatin; Lipex; Medipo; Nivelipol; Simovil; Sinvacor; Sivastin; Sivatin; Sivinar; Sorfox; Sotovastin; Starezin; Starstat; Starzoko; Stasiva; Statex; Staticor; Statinal; Stativer; Zocor

$$$$
Mebendazole
 OpenBabel02121510022D

 22 24  0  0  0  0  0  0  0  0999 V2000
    3.7930    1.5390    0.0000 O   0  0  0  0  0  0  0  0  0  0  0  0
    9.2610   -0.8250    0.0000 O   0  0  0  0  0  0  0  0  0  0  0  0
    8.0240   -1.5390    0.0000 O   0  0  0  0  0  0  0  0  0  0  0  0
    6.7170    0.5530    0.0000 N   0  0  0  0  0  0  0  0  0  0  0  0
    6.7170   -0.7740    0.0000 N   0  0  0  0  0  0  0  0  0  0  0  0
    8.0240   -0.1110    0.0000 N   0  0  0  0  0  0  0  0  0  0  0  0
    5.9360    0.3020    0.0000 C   0  0  0  0  0  0  0  0  0  0  0  0
    5.9360   -0.5230    0.0000 C   0  0  0  0  0  0  0  0  0  0  0  0
    4.5080    0.3020    0.0000 C   0  0  0  0  0  0  0  0  0  0  0  0
    5.2220    0.7140    0.0000 C   0  0  0  0  0  0  0  0  0  0  0  0
    5.2220   -0.9360    0.0000 C   0  0  0  0  0  0  0  0  0  0  0  0
    4.5080   -0.5230    0.0000 C   0  0  0  0  0  0  0  0  0  0  0  0
    7.1990   -0.1110    0.0000 C   0  0  0  0  0  0  0  0  0  0  0  0
    3.7930    0.7140    0.0000 C   0  0  0  0  0  0  0  0  0  0  0  0
    3.0790    0.3020    0.0000 C   0  0  0  0  0  0  0  0  0  0  0  0
    3.0790   -0.5230    0.0000 C   0  0  0  0  0  0  0  0  0  0  0  0
    2.3640    0.7140    0.0000 C   0  0  0  0  0  0  0  0  0  0  0  0
    2.3640   -0.9360    0.0000 C   0  0  0  0  0  0  0  0  0  0  0  0
    1.6500    0.3020    0.0000 C   0  0  0  0  0  0  0  0  0  0  0  0
    1.6500   -0.5230    0.0000 C   0  0  0  0  0  0  0  0  0  0  0  0
    8.4360   -0.8250    0.0000 C   0  0  0  0  0  0  0  0  0  0  0  0
    9.6740   -1.5390    0.0000 C   0  0  0  0  0  0  0  0  0  0  0  0
  1 14  2  0  0  0  0
  2 21  1  0  0  0  0
  2 22  1  0  0  0  0
  3 21  2  0  0  0  0
  4  7  1  0  0  0  0
  4 13  1  0  0  0  0
  5  8  1  0  0  0  0
  5 13  2  0  0  0  0
  6 13  1  0  0  0  0
  6 21  1  0  0  0  0
  7  8  1  0  0  0  0
  7 10  2  0  0  0  0
  8 11  2  0  0  0  0
  9 10  1  0  0  0  0
  9 12  2  0  0  0  0
  9 14  1  0  0  0  0
 11 12  1  0  0  0  0
 14 15  1  0  0  0  0
 15 16  2  0  0  0  0
 15 17  1  0  0  0  0
 16 18  1  0  0  0  0
 17 19  2  0  0  0  0
 18 20  2  0  0  0  0
 19 20  1  0  0  0  0
M  END
>  <DATABASE_ID>
DB00643

>  <DATABASE_NAME>
drugbank

>  <SMILES>
O(C(=O)Nc1[nH]c2cc(ccc2n1)C(=O)c1ccccc1)C

>  <INCHI_IDENTIFIER>
InChI=1S/C16H13N3O3/c1-22-16(21)19-15-17-12-8-7-11(9-13(12)18-15)14(20)10-5-3-2-4-6-10/h2-9H,1H3,(H2,17,18,19,21)

>  <INCHI_KEY>
InChIKey=OPXLLQIJSORQAM-UHFFFAOYSA-N

>  <JCHEM_ACCEPTOR_COUNT>
4

>  <JCHEM_AVERAGE_POLARIZABILITY>
31.098982

>  <JCHEM_BIOAVAILABILITY>
1

>  <JCHEM_DONOR_COUNT>
2

>  <JCHEM_EXACT_MASS>
295.0957

>  <JCHEM_FORMAL_CHARGE>
0

>  <JCHEM_FORMULA>
C16H13N3O3

>  <JCHEM_GHOSE_FILTER>
1

>  <JCHEM_IUPAC>
methyl N-(6-benzoyl-1H-1,3-benzodiazol-2-yl)carbamate

>  <ALOGPS_LOGP>
2.95

>  <JCHEM_LOGP>
3.2601085

>  <ALOGPS_LOGS>
-3.8800001

>  <JCHEM_MASS>
295.29269

>  <JCHEM_MDDR_LIKE_RULE>
0

>  <JCHEM_NUMBER_OF_RINGS>
3

>  <JCHEM_PHYSIOLOGICAL_CHARGE>
0

>  <JCHEM_PKA>
13.923274

>  <JCHEM_PKA_STRONGEST_ACIDIC>
8.4372206

>  <JCHEM_PKA_STRONGEST_BASIC>
3.9325309

>  <JCHEM_POLAR_SURFACE_AREA>
84.080002

>  <JCHEM_REFRACTIVITY>
81.503899

>  <JCHEM_ROTATABLE_BOND_COUNT>
4

>  <JCHEM_RULE_OF_FIVE>
1

>  <ALOGPS_SOLUBILITY>
3.87e-02 g/l

>  <JCHEM_TRADITIONAL_IUPAC>
mebendazole

>  <JCHEM_VEBER_RULE>
0

>  <DRUGBANK_ID>
DB00643

>  <DRUG_GROUPS>
approved

>  <GENERIC_NAME>
Mebendazole

>  <SYNONYMS>
(5-benzoyl-1H-benzimidazol-2-yl)-carbamic acid methyl ester; MBDZ; Mebendazol; Mebendazol; Mébendazole; Mebendazolum

>  <BRANDS>
Lomper; Meberix; Mebex; Mebezol; Mebfil; Mebutar; Mebzol; Mendazole; Mezole; Minyoozole; Mopen; Multielmin; Necamin; Ovex; Panamox; Pantelmin; Tesical; Thelmox; Ticoquer; Vermox

$$$$
Dyclonine
 OpenBabel02121510022D

 21 22  0  0  0  0  0  0  0  0999 V2000
    2.3640    1.8560    0.0000 O   0  0  0  0  0  0  0  0  0  0  0  0
    3.0790   -1.8560    0.0000 O   0  0  0  0  0  0  0  0  0  0  0  0
    4.5080    3.0940    0.0000 N   0  0  0  0  0  0  0  0  0  0  0  0
    4.5080    3.9190    0.0000 C   0  0  0  0  0  0  0  0  0  0  0  0
    5.2220    2.6810    0.0000 C   0  0  0  0  0  0  0  0  0  0  0  0
    5.2220    4.3310    0.0000 C   0  0  0  0  0  0  0  0  0  0  0  0
    5.9370    3.0940    0.0000 C   0  0  0  0  0  0  0  0  0  0  0  0
    5.9370    3.9190    0.0000 C   0  0  0  0  0  0  0  0  0  0  0  0
    3.7940    2.6810    0.0000 C   0  0  0  0  0  0  0  0  0  0  0  0
    3.7940    1.8560    0.0000 C   0  0  0  0  0  0  0  0  0  0  0  0
    3.0790    1.4440    0.0000 C   0  0  0  0  0  0  0  0  0  0  0  0
    3.0790    0.6190    0.0000 C   0  0  0  0  0  0  0  0  0  0  0  0
    3.7940    0.2060    0.0000 C   0  0  0  0  0  0  0  0  0  0  0  0
    2.3640    0.2060    0.0000 C   0  0  0  0  0  0  0  0  0  0  0  0
    2.3640   -3.0940    0.0000 C   0  0  0  0  0  0  0  0  0  0  0  0
    3.0790   -1.0310    0.0000 C   0  0  0  0  0  0  0  0  0  0  0  0
    3.7940   -0.6190    0.0000 C   0  0  0  0  0  0  0  0  0  0  0  0
    2.3640   -0.6190    0.0000 C   0  0  0  0  0  0  0  0  0  0  0  0
    2.3640   -2.2690    0.0000 C   0  0  0  0  0  0  0  0  0  0  0  0
    1.6500   -3.5060    0.0000 C   0  0  0  0  0  0  0  0  0  0  0  0
    1.6500   -4.3310    0.0000 C   0  0  0  0  0  0  0  0  0  0  0  0
  1 11  2  0  0  0  0
  2 16  1  0  0  0  0
  2 19  1  0  0  0  0
  3  4  1  0  0  0  0
  3  5  1  0  0  0  0
  3  9  1  0  0  0  0
  4  6  1  0  0  0  0
  5  7  1  0  0  0  0
  6  8  1  0  0  0  0
  7  8  1  0  0  0  0
  9 10  1  0  0  0  0
 10 11  1  0  0  0  0
 11 12  1  0  0  0  0
 12 13  2  0  0  0  0
 12 14  1  0  0  0  0
 13 17  1  0  0  0  0
 14 18  2  0  0  0  0
 15 19  1  0  0  0  0
 15 20  1  0  0  0  0
 16 17  2  0  0  0  0
 16 18  1  0  0  0  0
 20 21  1  0  0  0  0
M  END
>  <DATABASE_ID>
DB00645

>  <DATABASE_NAME>
drugbank

>  <SMILES>
O(CCCC)c1ccc(cc1)C(=O)CCN1CCCCC1

>  <INCHI_IDENTIFIER>
InChI=1S/C18H27NO2/c1-2-3-15-21-17-9-7-16(8-10-17)18(20)11-14-19-12-5-4-6-13-19/h7-10H,2-6,11-15H2,1H3

>  <INCHI_KEY>
InChIKey=BZEWSEKUUPWQDQ-UHFFFAOYSA-N

>  <JCHEM_ACCEPTOR_COUNT>
3

>  <JCHEM_AVERAGE_POLARIZABILITY>
35.139107

>  <JCHEM_BIOAVAILABILITY>
1

>  <JCHEM_DONOR_COUNT>
0

>  <JCHEM_EXACT_MASS>
289.20419

>  <JCHEM_FORMAL_CHARGE>
0

>  <JCHEM_FORMULA>
C18H27NO2

>  <JCHEM_GHOSE_FILTER>
1

>  <JCHEM_IUPAC>
1-(4-butoxyphenyl)-3-(piperidin-1-yl)propan-1-one

>  <ALOGPS_LOGP>
4.1100001

>  <JCHEM_LOGP>
3.6759984

>  <ALOGPS_LOGS>
-3.8

>  <JCHEM_MASS>
289.41251

>  <JCHEM_MDDR_LIKE_RULE>
0

>  <JCHEM_NUMBER_OF_RINGS>
2

>  <JCHEM_PHYSIOLOGICAL_CHARGE>
1

>  <JCHEM_PKA_STRONGEST_ACIDIC>
15.88437

>  <JCHEM_PKA_STRONGEST_BASIC>
8.3644876

>  <JCHEM_POLAR_SURFACE_AREA>
29.540001

>  <JCHEM_REFRACTIVITY>
87.068001

>  <JCHEM_ROTATABLE_BOND_COUNT>
8

>  <JCHEM_RULE_OF_FIVE>
1

>  <ALOGPS_SOLUBILITY>
4.60e-02 g/l

>  <JCHEM_TRADITIONAL_IUPAC>
dyclonine

>  <JCHEM_VEBER_RULE>
1

>  <DRUGBANK_ID>
DB00645

>  <DRUG_GROUPS>
approved

>  <GENERIC_NAME>
Dyclonine

>  <SYNONYMS>
Diclonina; Dyclocaine; Dyclonin; Dyclonine; Dycloninum

>  <BRANDS>
Dyclone; Sucrets

>  <SALTS>
Dyclonine hydrochloride

$$$$
Nystatin
 OpenBabel02121510022D

 65 66  0  0  1  0  0  0  0  0999 V2000
    4.9510    3.3000    0.0000 O   0  0  0  0  0  0  0  0  0  0  0  0
    4.2360    2.0620    0.0000 O   0  0  0  0  0  0  0  0  0  0  0  0
    2.8080    2.8880    0.0000 O   0  0  0  0  0  0  0  0  0  0  0  0
    4.2360    5.3630    0.0000 O   0  0  0  0  0  0  0  0  0  0  0  0
    7.0940    2.0620    0.0000 O   0  0  0  0  0  0  0  0  0  0  0  0
    5.3830    1.1880    0.0000 O   0  0  0  0  0  0  0  0  0  0  0  0
    9.2380   -4.1250    0.0000 O   0  0  0  0  0  0  0  0  0  0  0  0
    6.7920   -0.9360    0.0000 O   0  0  0  0  0  0  0  0  0  0  0  0
    5.6660   -2.8880    0.0000 O   0  0  0  0  0  0  0  0  0  0  0  0
    8.5230   -2.8880    0.0000 O   0  0  0  0  0  0  0  0  0  0  0  0
    7.6180    1.5400    0.0000 O   0  0  0  0  0  0  0  0  0  0  0  0
   10.6670   -1.6500    0.0000 O   0  0  0  0  0  0  0  0  0  0  0  0
    7.0940   -5.3630    0.0000 O   0  0  0  0  0  0  0  0  0  0  0  0
    7.6180    0.1110    0.0000 O   0  0  0  0  0  0  0  0  0  0  0  0
    4.2360   -1.2380    0.0000 O   0  0  0  0  0  0  0  0  0  0  0  0
   11.3810   -2.8880    0.0000 O   0  0  0  0  0  0  0  0  0  0  0  0
    9.9520   -5.3630    0.0000 O   0  0  0  0  0  0  0  0  0  0  0  0
    2.8080    4.5380    0.0000 N   0  0  0  0  0  0  0  0  0  0  0  0
    3.5220    4.1250    0.0000 C   0  0  2  0  0  0  0  0  0  0  0  0
    3.5220    3.3000    0.0000 C   0  0  1  0  0  0  0  0  0  0  0  0
    4.2360    4.5380    0.0000 C   0  0  1  0  0  0  0  0  0  0  0  0
    4.2360    2.8880    0.0000 C   0  0  3  0  0  0  0  0  0  0  0  0
    4.9510    4.1250    0.0000 C   0  0  1  0  0  0  0  0  0  0  0  0
    4.9510    1.6500    0.0000 C   0  0  3  0  0  0  0  0  0  0  0  0
    5.6660    2.0620    0.0000 C   0  0  0  0  0  0  0  0  0  0  0  0
    6.3800    1.6500    0.0000 C   0  0  3  0  0  0  0  0  0  0  0  0
    6.3800    0.8250    0.0000 C   0  0  3  0  0  0  0  0  0  0  0  0
    5.6660    4.5380    0.0000 C   0  0  0  0  0  0  0  0  0  0  0  0
    5.6660    0.4120    0.0000 C   0  0  3  0  0  0  0  0  0  0  0  0
    5.6660   -0.4120    0.0000 C   0  0  0  0  0  0  0  0  0  0  0  0
    4.9510    0.8250    0.0000 C   0  0  0  0  0  0  0  0  0  0  0  0
    6.3800   -1.6500    0.0000 C   0  0  3  0  0  0  0  0  0  0  0  0
    5.6660   -2.0620    0.0000 C   0  0  3  0  0  0  0  0  0  0  0  0
    7.0940   -2.0620    0.0000 C   0  0  0  0  0  0  0  0  0  0  0  0
    7.8090   -1.6500    0.0000 C   0  0  0  0  0  0  0  0  0  0  0  0
    8.5230   -2.0620    0.0000 C   0  0  3  0  0  0  0  0  0  0  0  0
    4.9510   -1.6500    0.0000 C   0  0  0  0  0  0  0  0  0  0  0  0
    7.8090   -4.1250    0.0000 C   0  0  3  0  0  0  0  0  0  0  0  0
    9.2380   -1.6500    0.0000 C   0  0  0  0  0  0  0  0  0  0  0  0
    7.2050    0.8250    0.0000 C   0  0  0  0  0  0  0  0  0  0  0  0
    4.9510   -0.8250    0.0000 C   0  0  0  0  0  0  0  0  0  0  0  0
    9.9520   -2.0620    0.0000 C   0  0  3  0  0  0  0  0  0  0  0  0
    7.0940   -4.5380    0.0000 C   0  0  3  0  0  0  0  0  0  0  0  0
    8.5230   -4.5380    0.0000 C   0  0  3  0  0  0  0  0  0  0  0  0
    9.9520   -2.8880    0.0000 C   0  0  0  0  0  0  0  0  0  0  0  0
    6.3800   -4.1250    0.0000 C   0  0  3  0  0  0  0  0  0  0  0  0
   10.6670   -3.3000    0.0000 C   0  0  3  0  0  0  0  0  0  0  0  0
    7.8090   -3.3000    0.0000 C   0  0  0  0  0  0  0  0  0  0  0  0
    4.2360    0.4120    0.0000 C   0  0  0  0  0  0  0  0  0  0  0  0
   10.6670   -4.1250    0.0000 C   0  0  0  0  0  0  0  0  0  0  0  0
    8.5230   -5.3630    0.0000 C   0  0  0  0  0  0  0  0  0  0  0  0
    6.3800   -3.3000    0.0000 C   0  0  0  0  0  0  0  0  0  0  0  0
    9.9520   -4.5380    0.0000 C   0  0  0  0  0  0  0  0  0  0  0  0
    5.6660   -4.5380    0.0000 C   0  0  0  0  0  0  0  0  0  0  0  0
    4.2360   -0.4120    0.0000 C   0  0  0  0  0  0  0  0  0  0  0  0
    4.9510   -4.1250    0.0000 C   0  0  0  0  0  0  0  0  0  0  0  0
    3.5220   -0.8250    0.0000 C   0  0  0  0  0  0  0  0  0  0  0  0
    4.2360   -4.5380    0.0000 C   0  0  0  0  0  0  0  0  0  0  0  0
    3.5220   -1.6500    0.0000 C   0  0  0  0  0  0  0  0  0  0  0  0
    3.5220   -4.1250    0.0000 C   0  0  0  0  0  0  0  0  0  0  0  0
    2.8080   -4.5380    0.0000 C   0  0  0  0  0  0  0  0  0  0  0  0
    2.8080   -2.0620    0.0000 C   0  0  0  0  0  0  0  0  0  0  0  0
    2.0930   -4.1250    0.0000 C   0  0  0  0  0  0  0  0  0  0  0  0
    2.8080   -2.8880    0.0000 C   0  0  0  0  0  0  0  0  0  0  0  0
    2.0930   -3.3000    0.0000 C   0  0  0  0  0  0  0  0  0  0  0  0
  1 22  1  0  0  0  0
  1 23  1  0  0  0  0
  2 22  1  0  0  0  0
  2 24  1  0  0  0  0
  5 26  1  0  0  0  0
  6 29  1  0  0  0  0
  7 44  1  0  0  0  0
  7 53  1  0  0  0  0
  8 32  1  0  0  0  0
  9 33  1  0  0  0  0
 10 36  1  0  0  0  0
 11 40  1  0  0  0  0
 12 42  1  0  0  0  0
 13 43  1  0  0  0  0
 14 40  2  0  0  0  0
 15 41  2  0  0  0  0
 16 47  1  0  0  0  0
 17 53  2  0  0  0  0
 19 18  1  1  0  0  0
 19 20  1  0  0  0  0
 19 21  1  0  0  0  0
 20  3  1  1  0  0  0
 20 22  1  0  0  0  0
 21  4  1  6  0  0  0
 21 23  1  0  0  0  0
 23 28  1  1  0  0  0
 24 25  1  0  0  0  0
 24 31  1  0  0  0  0
 25 26  1  0  0  0  0
 26 27  1  0  0  0  0
 27 29  1  0  0  0  0
 27 40  1  0  0  0  0
 29 30  1  0  0  0  0
 30 41  1  0  0  0  0
 31 49  2  0  0  0  0
 32 33  1  0  0  0  0
 32 34  1  0  0  0  0
 33 37  1  0  0  0  0
 34 35  1  0  0  0  0
 35 36  1  0  0  0  0
 36 39  1  0  0  0  0
 37 41  1  0  0  0  0
 38 43  1  0  0  0  0
 38 44  1  0  0  0  0
 38 48  1  0  0  0  0
 39 42  1  0  0  0  0
 42 45  1  0  0  0  0
 43 46  1  0  0  0  0
 44 51  1  0  0  0  0
 45 47  1  0  0  0  0
 46 52  1  0  0  0  0
 46 54  1  0  0  0  0
 47 50  1  0  0  0  0
 49 55  1  0  0  0  0
 50 53  1  0  0  0  0
 54 56  2  0  0  0  0
 55 57  2  0  0  0  0
 56 58  1  0  0  0  0
 57 59  1  0  0  0  0
 58 60  2  0  0  0  0
 59 62  2  0  0  0  0
 60 61  1  0  0  0  0
 61 63  1  0  0  0  0
 62 64  1  0  0  0  0
 63 65  1  0  0  0  0
 64 65  2  0  0  0  0
M  END
>  <DATABASE_ID>
DB00646

>  <DATABASE_NAME>
drugbank

>  <SMILES>
O1C(C)C(C)C(O)C(\C=C\C=C\CC\C=C\C=C\C=C\C=C\C(OC2O[C@H](C)[C@@H](O)[C@H](N)[C@@H]2O)CC(O)C(C(O)=O)C(O)CC(=O)CC(O)C(O)CCC(O)CC(O)CC(O)CC1=O)C

>  <INCHI_IDENTIFIER>
InChI=1S/C47H75NO17/c1-27-17-15-13-11-9-7-5-6-8-10-12-14-16-18-35(65-47-45(60)42(48)44(59)30(4)64-47)26-39(56)41(46(61)62)38(55)24-34(52)23-37(54)36(53)20-19-31(49)21-32(50)22-33(51)25-40(57)63-29(3)28(2)43(27)58/h5-6,8,10-18,27-33,35-39,41-45,47,49-51,53-56,58-60H,7,9,19-26,48H2,1-4H3,(H,61,62)/b6-5+,10-8+,13-11+,14-12+,17-15+,18-16+/t27?,28?,29?,30-,31?,32?,33?,35?,36?,37?,38?,39?,41?,42+,43?,44-,45+,47?/m1/s1

>  <INCHI_KEY>
InChIKey=ZDFDJJJGIRGMBE-AFARJNEBSA-N

>  <JCHEM_ACCEPTOR_COUNT>
17

>  <JCHEM_AVERAGE_POLARIZABILITY>
102.10815

>  <JCHEM_BIOAVAILABILITY>
0

>  <JCHEM_DONOR_COUNT>
12

>  <JCHEM_EXACT_MASS>
925.50348

>  <JCHEM_FORMAL_CHARGE>
0

>  <JCHEM_FORMULA>
C47H75NO17

>  <JCHEM_GHOSE_FILTER>
0

>  <JCHEM_IUPAC>
(21E,23E,25E,27E,31E,33E)-20-{[(3S,4S,5S,6R)-4-amino-3,5-dihydroxy-6-methyloxan-2-yl]oxy}-4,6,8,11,12,16,18,36-octahydroxy-35,37,38-trimethyl-2,14-dioxo-1-oxacyclooctatriaconta-21,23,25,27,31,33-hexaene-17-carboxylic acid

>  <ALOGPS_LOGP>
-2.8199999

>  <JCHEM_LOGP>
-2.6661546

>  <ALOGPS_LOGS>
-4.1500001

>  <JCHEM_MASS>
926.09491

>  <JCHEM_MDDR_LIKE_RULE>
0

>  <JCHEM_NUMBER_OF_RINGS>
2

>  <JCHEM_PHYSIOLOGICAL_CHARGE>
0

>  <JCHEM_PKA>
12.651952

>  <JCHEM_PKA_STRONGEST_ACIDIC>
3.6208467

>  <JCHEM_PKA_STRONGEST_BASIC>
9.1138163

>  <JCHEM_POLAR_SURFACE_AREA>
327.45001

>  <JCHEM_REFRACTIVITY>
245.175

>  <JCHEM_ROTATABLE_BOND_COUNT>
3

>  <JCHEM_RULE_OF_FIVE>
0

>  <ALOGPS_SOLUBILITY>
6.60e-02 g/l

>  <JCHEM_TRADITIONAL_IUPAC>
nystatin

>  <JCHEM_VEBER_RULE>
0

>  <DRUGBANK_ID>
DB00646

>  <DRUG_GROUPS>
approved

>  <GENERIC_NAME>
Nystatin

>  <SYNONYMS>
Nistatina; Nystatin; Nystatine; Nystatinum

>  <BRANDS>
Adiclair; Afunginal; Biofanal; Candacide; Candermil; Candex; Candidias; Candistat; Candistin; Canstat; Cazetin; Diaper NZ; Dipni; Enystin; Fukangning; Fungatin; Fungicidin Leciva; Fungistin; Fungostatin; Funistatin; Gynostatin; Kandistatin; Kenalon; Lederlind; Ledernyst; Lystin; Mycostatin; Nilstat; Nyaderm; Nyamyc; Nystan; Nystop; Pedi-Dri

>  <SALTS>
Nystatin dihydrate

$$$$
Dextropropoxyphene
 OpenBabel02121510022D

 25 26  0  0  1  0  0  0  0  0999 V2000
   -1.6200    3.0940    0.0000 C   0  0  0  0  0  0  0  0  0  0  0  0
   -2.3350    2.6810    0.0000 C   0  0  0  0  0  0  0  0  0  0  0  0
   -2.3350    1.8560    0.0000 C   0  0  0  0  0  0  0  0  0  0  0  0
   -1.6200    1.4440    0.0000 C   0  0  0  0  0  0  0  0  0  0  0  0
   -0.9060    1.8560    0.0000 C   0  0  0  0  0  0  0  0  0  0  0  0
   -0.9060    2.6810    0.0000 C   0  0  0  0  0  0  0  0  0  0  0  0
   -1.6200    0.6190    0.0000 C   0  0  2  0  0  0  0  0  0  0  0  0
   -2.3350    0.2060    0.0000 C   0  0  0  0  0  0  0  0  0  0  0  0
   -3.0500    0.6190    0.0000 C   0  0  0  0  0  0  0  0  0  0  0  0
   -3.7640    1.8560    0.0000 C   0  0  0  0  0  0  0  0  0  0  0  0
   -4.4780    1.4440    0.0000 C   0  0  0  0  0  0  0  0  0  0  0  0
   -4.4780    0.6190    0.0000 C   0  0  0  0  0  0  0  0  0  0  0  0
   -3.7640    0.2060    0.0000 C   0  0  0  0  0  0  0  0  0  0  0  0
   -3.0500    1.4440    0.0000 C   0  0  0  0  0  0  0  0  0  0  0  0
   -1.6200   -0.2060    0.0000 C   0  0  1  0  0  0  0  0  0  0  0  0
   -0.9060    0.2060    0.0000 O   0  0  0  0  0  0  0  0  0  0  0  0
   -0.1920    0.6190    0.0000 C   0  0  0  0  0  0  0  0  0  0  0  0
    0.5230    0.2060    0.0000 C   0  0  0  0  0  0  0  0  0  0  0  0
    1.2370    0.6190    0.0000 C   0  0  0  0  0  0  0  0  0  0  0  0
   -0.9060   -0.6190    0.0000 C   0  0  0  0  0  0  0  0  0  0  0  0
   -0.9060   -1.4440    0.0000 N   0  0  0  0  0  0  0  0  0  0  0  0
   -1.6200   -1.8560    0.0000 C   0  0  0  0  0  0  0  0  0  0  0  0
   -0.1920   -1.8560    0.0000 C   0  0  0  0  0  0  0  0  0  0  0  0
   -2.3350   -0.6190    0.0000 C   0  0  0  0  0  0  0  0  0  0  0  0
   -0.1920    1.4440    0.0000 O   0  0  0  0  0  0  0  0  0  0  0  0
  1  2  2  0  0  0  0
  1  6  1  0  0  0  0
  2  3  1  0  0  0  0
  3  4  2  0  0  0  0
  4  5  1  0  0  0  0
  5  6  2  0  0  0  0
  7  4  1  1  0  0  0
  7  8  1  0  0  0  0
  7 15  1  0  0  0  0
  7 16  1  0  0  0  0
  8  9  1  0  0  0  0
  9 13  1  0  0  0  0
  9 14  2  0  0  0  0
 10 11  2  0  0  0  0
 10 14  1  0  0  0  0
 11 12  1  0  0  0  0
 12 13  2  0  0  0  0
 15 20  1  1  0  0  0
 15 24  1  0  0  0  0
 16 17  1  0  0  0  0
 17 18  1  0  0  0  0
 17 25  2  0  0  0  0
 18 19  1  0  0  0  0
 20 21  1  0  0  0  0
 21 22  1  0  0  0  0
 21 23  1  0  0  0  0
M  END
>  <DATABASE_ID>
DB00647

>  <DATABASE_NAME>
drugbank

>  <SMILES>
O([C@]([C@@H](CN(C)C)C)(Cc1ccccc1)c1ccccc1)C(=O)CC

>  <INCHI_IDENTIFIER>
InChI=1/C22H29NO2/c1-5-21(24)25-22(18(2)17-23(3)4,20-14-10-7-11-15-20)16-19-12-8-6-9-13-19/h6-15,18H,5,16-17H2,1-4H3/t18-,22+/s2

>  <INCHI_KEY>
InChIKey=XLMALTXPSGQGBX-PEODTPIXNA-N

>  <JCHEM_ACCEPTOR_COUNT>
2

>  <JCHEM_AVERAGE_POLARIZABILITY>
38.858231

>  <JCHEM_BIOAVAILABILITY>
1

>  <JCHEM_DONOR_COUNT>
0

>  <JCHEM_EXACT_MASS>
339.21982

>  <JCHEM_FORMAL_CHARGE>
0

>  <JCHEM_FORMULA>
C22H29NO2

>  <JCHEM_GHOSE_FILTER>
1

>  <JCHEM_IUPAC>
(2S,3R)-4-(dimethylamino)-3-methyl-1,2-diphenylbutan-2-yl propanoate

>  <ALOGPS_LOGP>
4.0599999

>  <JCHEM_LOGP>
4.9021554

>  <ALOGPS_LOGS>
-4.9099998

>  <JCHEM_MASS>
339.47119

>  <JCHEM_MDDR_LIKE_RULE>
0

>  <JCHEM_NUMBER_OF_RINGS>
2

>  <JCHEM_PHYSIOLOGICAL_CHARGE>
1

>  <JCHEM_PKA_STRONGEST_BASIC>
9.5170555

>  <JCHEM_POLAR_SURFACE_AREA>
29.540001

>  <JCHEM_REFRACTIVITY>
102.8806

>  <JCHEM_ROTATABLE_BOND_COUNT>
9

>  <JCHEM_RULE_OF_FIVE>
1

>  <ALOGPS_SOLUBILITY>
4.19e-03 g/l

>  <JCHEM_TRADITIONAL_IUPAC>
propoxyphene

>  <JCHEM_VEBER_RULE>
1

>  <DRUGBANK_ID>
DB00647

>  <DRUG_GROUPS>
approved; illicit; withdrawn

>  <GENERIC_NAME>
Dextropropoxyphene

>  <SYNONYMS>
d-Propoxyphene; Destropropossifene; Dextropropoxifeno; Dextropropoxyphen; Dextropropoxyphène; Dextropropoxyphenum

>  <BRANDS>
Abalgin; Dacoton; Darvon; Darvon-N; Deprancol; Depronal; Dolene; Doloxene; Propoxyphene

>  <SALTS>
Dextropropoxyphene Hydrochloride; Dextropropoxyphene Napsylate

$$$$
Mitotane
 OpenBabel02121510022D

 18 19  0  0  1  0  0  0  0  0999 V2000
    2.3640    1.6500    0.0000 Cl  0  0  0  0  0  0  0  0  0  0  0  0
    1.6500    0.4120    0.0000 Cl  0  0  0  0  0  0  0  0  0  0  0  0
    1.6500   -0.4120    0.0000 Cl  0  0  0  0  0  0  0  0  0  0  0  0
    5.9370    2.0620    0.0000 Cl  0  0  0  0  0  0  0  0  0  0  0  0
    3.0790    0.4120    0.0000 C   0  0  3  0  0  0  0  0  0  0  0  0
    3.7940    0.8250    0.0000 C   0  0  0  0  0  0  0  0  0  0  0  0
    3.0790   -0.4120    0.0000 C   0  0  0  0  0  0  0  0  0  0  0  0
    2.3640    0.8250    0.0000 C   0  0  0  0  0  0  0  0  0  0  0  0
    4.5080    0.4120    0.0000 C   0  0  0  0  0  0  0  0  0  0  0  0
    3.7940    1.6500    0.0000 C   0  0  0  0  0  0  0  0  0  0  0  0
    2.3640   -0.8250    0.0000 C   0  0  0  0  0  0  0  0  0  0  0  0
    3.7940   -0.8250    0.0000 C   0  0  0  0  0  0  0  0  0  0  0  0
    5.2220    0.8250    0.0000 C   0  0  0  0  0  0  0  0  0  0  0  0
    4.5080    2.0620    0.0000 C   0  0  0  0  0  0  0  0  0  0  0  0
    2.3640   -1.6500    0.0000 C   0  0  0  0  0  0  0  0  0  0  0  0
    3.7940   -1.6500    0.0000 C   0  0  0  0  0  0  0  0  0  0  0  0
    5.2220    1.6500    0.0000 C   0  0  0  0  0  0  0  0  0  0  0  0
    3.0790   -2.0620    0.0000 C   0  0  0  0  0  0  0  0  0  0  0  0
  1  8  1  0  0  0  0
  2  8  1  0  0  0  0
  3 11  1  0  0  0  0
  4 17  1  0  0  0  0
  5  6  1  0  0  0  0
  5  7  1  0  0  0  0
  5  8  1  0  0  0  0
  6  9  2  0  0  0  0
  6 10  1  0  0  0  0
  7 11  2  0  0  0  0
  7 12  1  0  0  0  0
  9 13  1  0  0  0  0
 10 14  2  0  0  0  0
 11 15  1  0  0  0  0
 12 16  2  0  0  0  0
 13 17  2  0  0  0  0
 14 17  1  0  0  0  0
 15 18  2  0  0  0  0
 16 18  1  0  0  0  0
M  END
>  <DATABASE_ID>
DB00648

>  <DATABASE_NAME>
drugbank

>  <SMILES>
Clc1ccccc1C(C(Cl)Cl)c1ccc(Cl)cc1

>  <INCHI_IDENTIFIER>
InChI=1S/C14H10Cl4/c15-10-7-5-9(6-8-10)13(14(17)18)11-3-1-2-4-12(11)16/h1-8,13-14H

>  <INCHI_KEY>
InChIKey=JWBOIMRXGHLCPP-UHFFFAOYSA-N

>  <JCHEM_ACCEPTOR_COUNT>
0

>  <JCHEM_AVERAGE_POLARIZABILITY>
29.93479

>  <JCHEM_BIOAVAILABILITY>
1

>  <JCHEM_DONOR_COUNT>
0

>  <JCHEM_EXACT_MASS>
317.95367

>  <JCHEM_FORMAL_CHARGE>
0

>  <JCHEM_FORMULA>
C14H10Cl4

>  <JCHEM_GHOSE_FILTER>
0

>  <JCHEM_IUPAC>
1-chloro-4-[2,2-dichloro-1-(2-chlorophenyl)ethyl]benzene

>  <ALOGPS_LOGP>
6.0799999

>  <JCHEM_LOGP>
6.1103649

>  <ALOGPS_LOGS>
-7.5300002

>  <JCHEM_MASS>
320.04099

>  <JCHEM_MDDR_LIKE_RULE>
0

>  <JCHEM_NUMBER_OF_RINGS>
2

>  <JCHEM_PHYSIOLOGICAL_CHARGE>
0

>  <JCHEM_POLAR_SURFACE_AREA>
0

>  <JCHEM_REFRACTIVITY>
79.965401

>  <JCHEM_ROTATABLE_BOND_COUNT>
3

>  <JCHEM_RULE_OF_FIVE>
0

>  <ALOGPS_SOLUBILITY>
9.42e-06 g/l

>  <JCHEM_TRADITIONAL_IUPAC>
mitotane

>  <JCHEM_VEBER_RULE>
1

>  <DRUGBANK_ID>
DB00648

>  <DRUG_GROUPS>
approved

>  <GENERIC_NAME>
Mitotane

>  <SYNONYMS>
Mitotan; Mitotane; Mitotano; Mitotanum; Piprine-DDD, O-

>  <BRANDS>
Lisodren; Lysodren; Opeprim

$$$$
Stavudine
 OpenBabel02121510022D

 16 17  0  0  1  0  0  0  0  0999 V2000
    3.7460   -0.5830    0.0000 O   0  0  0  0  0  0  0  0  0  0  0  0
    3.6410   -2.7880    0.0000 O   0  0  0  0  0  0  0  0  0  0  0  0
    1.6500    0.7270    0.0000 O   0  0  0  0  0  0  0  0  0  0  0  0
    3.0790    3.2020    0.0000 O   0  0  0  0  0  0  0  0  0  0  0  0
    3.0790    0.7270    0.0000 N   0  0  0  0  0  0  0  0  0  0  0  0
    2.3640    1.9650    0.0000 N   0  0  0  0  0  0  0  0  0  0  0  0
    3.0790   -0.0980    0.0000 C   0  0  1  0  0  0  0  0  0  0  0  0
    3.4920   -1.3670    0.0000 C   0  0  1  0  0  0  0  0  0  0  0  0
    2.4120   -0.5830    0.0000 C   0  0  0  0  0  0  0  0  0  0  0  0
    2.6660   -1.3670    0.0000 C   0  0  0  0  0  0  0  0  0  0  0  0
    3.9760   -2.0350    0.0000 C   0  0  0  0  0  0  0  0  0  0  0  0
    3.7940    1.1400    0.0000 C   0  0  0  0  0  0  0  0  0  0  0  0
    2.3640    1.1400    0.0000 C   0  0  0  0  0  0  0  0  0  0  0  0
    3.7940    1.9650    0.0000 C   0  0  0  0  0  0  0  0  0  0  0  0
    3.0790    2.3770    0.0000 C   0  0  0  0  0  0  0  0  0  0  0  0
    4.5080    2.3770    0.0000 C   0  0  0  0  0  0  0  0  0  0  0  0
  1  7  1  0  0  0  0
  1  8  1  0  0  0  0
  2 11  1  0  0  0  0
  3 13  2  0  0  0  0
  4 15  2  0  0  0  0
  5 12  1  0  0  0  0
  5 13  1  0  0  0  0
  6 13  1  0  0  0  0
  6 15  1  0  0  0  0
  7  5  1  6  0  0  0
  7  9  1  0  0  0  0
  8 10  1  0  0  0  0
  8 11  1  6  0  0  0
  9 10  2  0  0  0  0
 12 14  2  0  0  0  0
 14 15  1  0  0  0  0
 14 16  1  0  0  0  0
M  END
>  <DATABASE_ID>
DB00649

>  <DATABASE_NAME>
drugbank

>  <SMILES>
O1[C@@H](C=C[C@@H]1N1C=C(C)C(=O)NC1=O)CO

>  <INCHI_IDENTIFIER>
InChI=1S/C10H12N2O4/c1-6-4-12(10(15)11-9(6)14)8-3-2-7(5-13)16-8/h2-4,7-8,13H,5H2,1H3,(H,11,14,15)/t7-,8+/m0/s1

>  <INCHI_KEY>
InChIKey=XNKLLVCARDGLGL-JGVFFNPUSA-N

>  <JCHEM_ACCEPTOR_COUNT>
4

>  <JCHEM_AVERAGE_POLARIZABILITY>
21.32526

>  <JCHEM_BIOAVAILABILITY>
1

>  <JCHEM_DONOR_COUNT>
2

>  <JCHEM_EXACT_MASS>
224.07971

>  <JCHEM_FORMAL_CHARGE>
0

>  <JCHEM_FORMULA>
C10H12N2O4

>  <JCHEM_GHOSE_FILTER>
1

>  <JCHEM_IUPAC>
1-[(2R,5S)-5-(hydroxymethyl)-2,5-dihydrofuran-2-yl]-5-methyl-1,2,3,4-tetrahydropyrimidine-2,4-dione

>  <ALOGPS_LOGP>
-0.73000002

>  <JCHEM_LOGP>
-0.2318061

>  <ALOGPS_LOGS>
-0.74000001

>  <JCHEM_MASS>
224.2133

>  <JCHEM_MDDR_LIKE_RULE>
0

>  <JCHEM_NUMBER_OF_RINGS>
2

>  <JCHEM_PHYSIOLOGICAL_CHARGE>
0

>  <JCHEM_PKA>
14.631812

>  <JCHEM_PKA_STRONGEST_ACIDIC>
9.9528532

>  <JCHEM_PKA_STRONGEST_BASIC>
-2.9602625

>  <JCHEM_POLAR_SURFACE_AREA>
78.870003

>  <JCHEM_REFRACTIVITY>
55.316299

>  <JCHEM_ROTATABLE_BOND_COUNT>
2

>  <JCHEM_RULE_OF_FIVE>
1

>  <ALOGPS_SOLUBILITY>
4.05e+01 g/l

>  <JCHEM_TRADITIONAL_IUPAC>
stavudine

>  <JCHEM_VEBER_RULE>
0

>  <DRUGBANK_ID>
DB00649

>  <DRUG_GROUPS>
approved; investigational

>  <GENERIC_NAME>
Stavudine

>  <SYNONYMS>
Estavudina; Sanilvudine; Stavudin; Stavudine; Stavudinum

>  <BRANDS>
Actastav; Ai Fu Ding; Avostav; Estavudox; Exvihr; Flamistav; Landstav; Lion; Mai Si Ting; S.T.V.; Sazi; Stadine; Stag; Stamar; Stavex; Stavir; Stavubergen; Zerit; Zerit XR

$$$$
Leucovorin
 OpenBabel02121510022D

 34 36  0  0  1  0  0  0  0  0999 V2000
   11.3950    0.1630    0.0000 O   0  0  0  0  0  0  0  0  0  0  0  0
    9.2380   -0.2200    0.0000 O   0  0  0  0  0  0  0  0  0  0  0  0
    4.9510   -1.0460    0.0000 O   0  0  0  0  0  0  0  0  0  0  0  0
    2.0930   -0.2200    0.0000 O   0  0  0  0  0  0  0  0  0  0  0  0
    2.8080    1.0170    0.0000 O   0  0  0  0  0  0  0  0  0  0  0  0
    2.0930   -2.6960    0.0000 O   0  0  0  0  0  0  0  0  0  0  0  0
    3.5220   -2.6960    0.0000 O   0  0  0  0  0  0  0  0  0  0  0  0
    9.9520    1.0170    0.0000 N   0  0  0  0  0  0  0  0  0  0  0  0
    9.9520    2.6670    0.0000 N   0  0  0  0  0  0  0  0  0  0  0  0
    7.8090    1.4300    0.0000 N   0  0  0  0  0  0  0  0  0  0  0  0
   11.4040    2.6960    0.0000 N   0  0  0  0  0  0  0  0  0  0  0  0
   12.1520    1.4120    0.0000 N   0  0  0  0  0  0  0  0  0  0  0  0
    4.2360    0.1920    0.0000 N   0  0  0  0  0  0  0  0  0  0  0  0
   12.8650    2.6870    0.0000 N   0  0  0  0  0  0  0  0  0  0  0  0
    9.2380    1.4300    0.0000 C   0  0  2  0  0  0  0  0  0  0  0  0
    9.2380    2.2540    0.0000 C   0  0  0  0  0  0  0  0  0  0  0  0
    8.5230    1.0170    0.0000 C   0  0  0  0  0  0  0  0  0  0  0  0
   10.6670    1.4300    0.0000 C   0  0  0  0  0  0  0  0  0  0  0  0
   10.6670    2.2540    0.0000 C   0  0  0  0  0  0  0  0  0  0  0  0
   11.4040    0.9880    0.0000 C   0  0  0  0  0  0  0  0  0  0  0  0
    9.9520    0.1920    0.0000 C   0  0  0  0  0  0  0  0  0  0  0  0
    7.0940    1.0170    0.0000 C   0  0  0  0  0  0  0  0  0  0  0  0
   12.1520    2.2720    0.0000 C   0  0  0  0  0  0  0  0  0  0  0  0
    6.3800    1.4300    0.0000 C   0  0  0  0  0  0  0  0  0  0  0  0
    7.0940    0.1920    0.0000 C   0  0  0  0  0  0  0  0  0  0  0  0
    3.5220   -0.2200    0.0000 C   0  0  1  0  0  0  0  0  0  0  0  0
    3.5220   -1.0460    0.0000 C   0  0  0  0  0  0  0  0  0  0  0  0
    5.6660    0.1920    0.0000 C   0  0  0  0  0  0  0  0  0  0  0  0
    5.6660    1.0170    0.0000 C   0  0  0  0  0  0  0  0  0  0  0  0
    6.3800   -0.2200    0.0000 C   0  0  0  0  0  0  0  0  0  0  0  0
    4.9510   -0.2200    0.0000 C   0  0  0  0  0  0  0  0  0  0  0  0
    2.8080   -1.4580    0.0000 C   0  0  0  0  0  0  0  0  0  0  0  0
    2.8080    0.1920    0.0000 C   0  0  0  0  0  0  0  0  0  0  0  0
    2.8080   -2.2830    0.0000 C   0  0  0  0  0  0  0  0  0  0  0  0
  1 20  2  0  0  0  0
  2 21  2  0  0  0  0
  3 31  2  0  0  0  0
  4 33  1  0  0  0  0
  5 33  2  0  0  0  0
  6 34  1  0  0  0  0
  7 34  2  0  0  0  0
  8 15  1  0  0  0  0
  8 18  1  0  0  0  0
  8 21  1  0  0  0  0
  9 16  1  0  0  0  0
  9 19  1  0  0  0  0
 10 17  1  0  0  0  0
 10 22  1  0  0  0  0
 11 19  1  0  0  0  0
 11 23  1  0  0  0  0
 12 20  1  0  0  0  0
 12 23  2  0  0  0  0
 13 31  1  0  0  0  0
 14 23  1  0  0  0  0
 15 16  1  0  0  0  0
 15 17  1  1  0  0  0
 18 19  2  0  0  0  0
 18 20  1  0  0  0  0
 22 24  2  0  0  0  0
 22 25  1  0  0  0  0
 24 29  1  0  0  0  0
 25 30  2  0  0  0  0
 26 13  1  1  0  0  0
 26 27  1  0  0  0  0
 26 33  1  0  0  0  0
 27 32  1  0  0  0  0
 28 29  2  0  0  0  0
 28 30  1  0  0  0  0
 28 31  1  0  0  0  0
 32 34  1  0  0  0  0
M  END
>  <DATABASE_ID>
DB00650

>  <DATABASE_NAME>
drugbank

>  <SMILES>
O=C1N=C(NC=2NC[C@@H](N(C1=2)C=O)CNc1ccc(cc1)C(=O)N[C@@H](CCC(O)=O)C(O)=O)N

>  <INCHI_IDENTIFIER>
InChI=1S/C20H23N7O7/c21-20-25-16-15(18(32)26-20)27(9-28)12(8-23-16)7-22-11-3-1-10(2-4-11)17(31)24-13(19(33)34)5-6-14(29)30/h1-4,9,12-13,22H,5-8H2,(H,24,31)(H,29,30)(H,33,34)(H4,21,23,25,26,32)/t12-,13-/m0/s1

>  <INCHI_KEY>
InChIKey=VVIAGPKUTFNRDU-STQMWFEESA-N

>  <JCHEM_ACCEPTOR_COUNT>
12

>  <JCHEM_AVERAGE_POLARIZABILITY>
44.584686

>  <JCHEM_BIOAVAILABILITY>
0

>  <JCHEM_DONOR_COUNT>
7

>  <JCHEM_EXACT_MASS>
473.16589

>  <JCHEM_FORMAL_CHARGE>
0

>  <JCHEM_FORMULA>
C20H23N7O7

>  <JCHEM_GHOSE_FILTER>
0

>  <JCHEM_IUPAC>
(2S)-2-{[4-({[(6S)-2-amino-5-formyl-4-oxo-1,4,5,6,7,8-hexahydropteridin-6-yl]methyl}amino)phenyl]formamido}pentanedioic acid

>  <ALOGPS_LOGP>
-1.0599999

>  <JCHEM_LOGP>
-2.8462939

>  <ALOGPS_LOGS>
-3.2

>  <JCHEM_MASS>
473.4393

>  <JCHEM_MDDR_LIKE_RULE>
1

>  <JCHEM_NUMBER_OF_RINGS>
3

>  <JCHEM_PHYSIOLOGICAL_CHARGE>
-2

>  <JCHEM_PKA>
3.9707112

>  <JCHEM_PKA_STRONGEST_ACIDIC>
3.2672794

>  <JCHEM_PKA_STRONGEST_BASIC>
2.6855631

>  <JCHEM_POLAR_SURFACE_AREA>
215.55

>  <JCHEM_REFRACTIVITY>
126.462

>  <JCHEM_ROTATABLE_BOND_COUNT>
9

>  <JCHEM_RULE_OF_FIVE>
0

>  <ALOGPS_SOLUBILITY>
3.00e-01 g/l

>  <JCHEM_TRADITIONAL_IUPAC>
(2S)-2-{[4-({[(6S)-2-amino-5-formyl-4-oxo-1,6,7,8-tetrahydropteridin-6-yl]methyl}amino)phenyl]formamido}pentanedioic acid

>  <JCHEM_VEBER_RULE>
0

>  <DRUGBANK_ID>
DB00650

>  <DRUG_GROUPS>
approved

>  <GENERIC_NAME>
Leucovorin

>  <SYNONYMS>
Citrovorum factor; Folinic acid; L-leucovorin; Levoleucovorin

>  <BRANDS>
Fusilev; Uzel; Wellcovorin

>  <SALTS>
Leucovorin calcium; Leucovorin sodium

$$$$
Dyphylline
 OpenBabel02121510022D

 18 19  0  0  1  0  0  0  0  0999 V2000
    6.1890    0.3000    0.0000 O   0  0  0  0  0  0  0  0  0  0  0  0
    3.0790    0.9460    0.0000 O   0  0  0  0  0  0  0  0  0  0  0  0
    6.7010    1.8680    0.0000 O   0  0  0  0  0  0  0  0  0  0  0  0
    1.6500   -1.5290    0.0000 O   0  0  0  0  0  0  0  0  0  0  0  0
    4.5740   -0.0400    0.0000 N   0  0  0  0  0  0  0  0  0  0  0  0
    3.0790   -1.5290    0.0000 N   0  0  0  0  0  0  0  0  0  0  0  0
    2.3640   -0.2920    0.0000 N   0  0  0  0  0  0  0  0  0  0  0  0
    4.5740   -1.3680    0.0000 N   0  0  0  0  0  0  0  0  0  0  0  0
    3.7940   -0.2920    0.0000 C   0  0  0  0  0  0  0  0  0  0  0  0
    4.8300    0.7440    0.0000 C   0  0  0  0  0  0  0  0  0  0  0  0
    3.7940   -1.1170    0.0000 C   0  0  0  0  0  0  0  0  0  0  0  0
    5.6380    0.9140    0.0000 C   0  0  3  0  0  0  0  0  0  0  0  0
    3.0790    0.1210    0.0000 C   0  0  0  0  0  0  0  0  0  0  0  0
    5.0560   -0.7040    0.0000 C   0  0  0  0  0  0  0  0  0  0  0  0
    2.3640   -1.1170    0.0000 C   0  0  0  0  0  0  0  0  0  0  0  0
    5.8940    1.6980    0.0000 C   0  0  0  0  0  0  0  0  0  0  0  0
    3.0790   -2.3540    0.0000 C   0  0  0  0  0  0  0  0  0  0  0  0
    1.6500    0.1210    0.0000 C   0  0  0  0  0  0  0  0  0  0  0  0
  1 12  1  0  0  0  0
  2 13  2  0  0  0  0
  3 16  1  0  0  0  0
  4 15  2  0  0  0  0
  5  9  1  0  0  0  0
  5 10  1  0  0  0  0
  5 14  1  0  0  0  0
  6 11  1  0  0  0  0
  6 15  1  0  0  0  0
  6 17  1  0  0  0  0
  7 13  1  0  0  0  0
  7 15  1  0  0  0  0
  7 18  1  0  0  0  0
  8 11  1  0  0  0  0
  8 14  2  0  0  0  0
  9 11  2  0  0  0  0
  9 13  1  0  0  0  0
 10 12  1  0  0  0  0
 12 16  1  0  0  0  0
M  END
>  <DATABASE_ID>
DB00651

>  <DATABASE_NAME>
drugbank

>  <SMILES>
O=C1N(C)C(=O)N(c2ncn(c12)CC(O)CO)C

>  <INCHI_IDENTIFIER>
InChI=1S/C10H14N4O4/c1-12-8-7(9(17)13(2)10(12)18)14(5-11-8)3-6(16)4-15/h5-6,15-16H,3-4H2,1-2H3

>  <INCHI_KEY>
InChIKey=KSCFJBIXMNOVSH-UHFFFAOYSA-N

>  <JCHEM_ACCEPTOR_COUNT>
5

>  <JCHEM_AVERAGE_POLARIZABILITY>
24.651239

>  <JCHEM_BIOAVAILABILITY>
1

>  <JCHEM_DONOR_COUNT>
2

>  <JCHEM_EXACT_MASS>
254.1015

>  <JCHEM_FORMAL_CHARGE>
0

>  <JCHEM_FORMULA>
C10H14N4O4

>  <JCHEM_GHOSE_FILTER>
0

>  <JCHEM_IUPAC>
7-(2,3-dihydroxypropyl)-1,3-dimethyl-2,3,6,7-tetrahydro-1H-purine-2,6-dione

>  <ALOGPS_LOGP>
-0.98000002

>  <JCHEM_LOGP>
-1.8660825

>  <ALOGPS_LOGS>
-1.25

>  <JCHEM_MASS>
254.2426

>  <JCHEM_MDDR_LIKE_RULE>
0

>  <JCHEM_NUMBER_OF_RINGS>
2

>  <JCHEM_PHYSIOLOGICAL_CHARGE>
0

>  <JCHEM_PKA>
15.629258

>  <JCHEM_PKA_STRONGEST_ACIDIC>
13.90913

>  <JCHEM_PKA_STRONGEST_BASIC>
-0.97372198

>  <JCHEM_POLAR_SURFACE_AREA>
98.900002

>  <JCHEM_REFRACTIVITY>
62.085999

>  <JCHEM_ROTATABLE_BOND_COUNT>
3

>  <JCHEM_RULE_OF_FIVE>
1

>  <ALOGPS_SOLUBILITY>
1.43e+01 g/l

>  <JCHEM_TRADITIONAL_IUPAC>
dyphylline

>  <JCHEM_VEBER_RULE>
0

>  <DRUGBANK_ID>
DB00651

>  <DRUG_GROUPS>
approved

>  <GENERIC_NAME>
Dyphylline

>  <SYNONYMS>
(±)-diprophylline; (±)-dyphylline; 7-(β,γ-dihydroxypropyl)theophylline; Dihydroxypropyl theopylin; Diprophylline

>  <BRANDS>
Corphyllin; Dilor; Lufyllin

$$$$
Pentazocine
 OpenBabel02121510022D

 21 23  0  0  1  0  0  0  0  0999 V2000
   17.5260  -10.4990    0.0000 C   0  0  2  0  0  0  0  0  0  0  0  0
   17.5260   -9.7040    0.0000 C   0  0  0  0  0  0  0  0  0  0  0  0
   18.2790  -10.9170    0.0000 C   0  0  2  0  0  0  0  0  0  0  0  0
   16.8570  -10.8760    0.0000 C   0  0  0  0  0  0  0  0  0  0  0  0
   18.2790  -10.1230    0.0000 C   0  0  0  0  0  0  0  0  0  0  0  0
   16.8570   -9.3280    0.0000 C   0  0  0  0  0  0  0  0  0  0  0  0
   18.2790   -9.3280    0.0000 C   0  0  0  0  0  0  0  0  0  0  0  0
   18.9490  -10.4990    0.0000 C   0  0  1  0  0  0  0  0  0  0  0  0
   19.6180  -10.1230    0.0000 C   0  0  0  0  0  0  0  0  0  0  0  0
   16.8570   -8.5330    0.0000 C   0  0  0  0  0  0  0  0  0  0  0  0
   18.9490   -9.7460    0.0000 C   0  0  0  0  0  0  0  0  0  0  0  0
   18.2790   -8.5330    0.0000 C   0  0  0  0  0  0  0  0  0  0  0  0
   19.6180  -10.9170    0.0000 N   0  0  0  0  0  0  0  0  0  0  0  0
   17.5680   -8.1150    0.0000 C   0  0  0  0  0  0  0  0  0  0  0  0
   16.1880   -8.1150    0.0000 O   0  0  0  0  0  0  0  0  0  0  0  0
   20.4540  -10.9170    0.0000 C   0  0  0  0  0  0  0  0  0  0  0  0
   20.9150  -11.6700    0.0000 C   0  0  0  0  0  0  0  0  0  0  0  0
   18.2790  -11.7960    0.0000 C   0  0  0  0  0  0  0  0  0  0  0  0
   21.7510  -11.6700    0.0000 C   0  0  0  0  0  0  0  0  0  0  0  0
   22.1700  -12.4230    0.0000 C   0  0  0  0  0  0  0  0  0  0  0  0
   22.1700  -10.9170    0.0000 C   0  0  0  0  0  0  0  0  0  0  0  0
  1  2  1  0  0  0  0
  1  3  1  0  0  0  0
  1  4  1  1  0  0  0
  1  5  1  0  0  0  0
  2  6  2  0  0  0  0
  2  7  1  0  0  0  0
  3  8  1  0  0  0  0
  3 18  1  6  0  0  0
  5  9  1  0  0  0  0
  6 10  1  0  0  0  0
  7 11  1  0  0  0  0
  7 12  2  0  0  0  0
  8 11  1  1  0  0  0
  8 13  1  0  0  0  0
  9 13  1  0  0  0  0
 10 14  2  0  0  0  0
 10 15  1  0  0  0  0
 12 14  1  0  0  0  0
 13 16  1  0  0  0  0
 16 17  1  0  0  0  0
 17 19  2  0  0  0  0
 19 20  1  0  0  0  0
 19 21  1  0  0  0  0
M  END
>  <DATABASE_ID>
DB00652

>  <DATABASE_NAME>
drugbank

>  <SMILES>
Oc1cc2c(C[C@H]3N(CC[C@]2(C)[C@H]3C)CC=C(C)C)cc1

>  <INCHI_IDENTIFIER>
InChI=1S/C19H27NO/c1-13(2)7-9-20-10-8-19(4)14(3)18(20)11-15-5-6-16(21)12-17(15)19/h5-7,12,14,18,21H,8-11H2,1-4H3/t14-,18+,19+/m0/s1

>  <INCHI_KEY>
InChIKey=VOKSWYLNZZRQPF-GDIGMMSISA-N

>  <JCHEM_ACCEPTOR_COUNT>
2

>  <JCHEM_AVERAGE_POLARIZABILITY>
33.861916

>  <JCHEM_BIOAVAILABILITY>
1

>  <JCHEM_DONOR_COUNT>
1

>  <JCHEM_EXACT_MASS>
285.20926

>  <JCHEM_FORMAL_CHARGE>
0

>  <JCHEM_FORMULA>
C19H27NO

>  <JCHEM_GHOSE_FILTER>
1

>  <JCHEM_IUPAC>
(1R,9R,13R)-1,13-dimethyl-10-(3-methylbut-2-en-1-yl)-10-azatricyclo[7.3.1.0^{2,7}]trideca-2,4,6-trien-4-ol

>  <ALOGPS_LOGP>
4.4400001

>  <JCHEM_LOGP>
3.89362

>  <ALOGPS_LOGS>
-3.3699999

>  <JCHEM_MASS>
285.4238

>  <JCHEM_MDDR_LIKE_RULE>
0

>  <JCHEM_NUMBER_OF_RINGS>
3

>  <JCHEM_PHYSIOLOGICAL_CHARGE>
1

>  <JCHEM_PKA_STRONGEST_ACIDIC>
7.5909266

>  <JCHEM_PKA_STRONGEST_BASIC>
12.401295

>  <JCHEM_POLAR_SURFACE_AREA>
23.469999

>  <JCHEM_REFRACTIVITY>
89.799301

>  <JCHEM_ROTATABLE_BOND_COUNT>
2

>  <JCHEM_RULE_OF_FIVE>
1

>  <ALOGPS_SOLUBILITY>
1.22e-01 g/l

>  <JCHEM_TRADITIONAL_IUPAC>
pentazocine

>  <JCHEM_VEBER_RULE>
1

>  <DRUGBANK_ID>
DB00652

>  <DRUG_GROUPS>
approved

>  <GENERIC_NAME>
Pentazocine

>  <SYNONYMS>
Pentazocin; Pentazocina; Pentazocine; Pentazocinum

>  <BRANDS>
Fortal; Fortral; Fortwin; Pangon; Pentagin; Sosegon; Stopain; Talwin; Talwin PX

>  <SALTS>
Pentazocine Hydrochloride; Pentazocine Lactate

$$$$
Magnesium Sulfate
 OpenBabel02121510022D

  6  4  0  0  0  0  0  0  0  0999 V2000
    0.0000    0.0000    0.0000 Mg  0  2  0  0  0 15  0  0  0  0  0  0
    2.3640    0.8250    0.0000 O   0  0  0  0  0  0  0  0  0  0  0  0
    2.3640   -0.8250    0.0000 O   0  0  0  0  0  0  0  0  0  0  0  0
    3.1900    0.0000    0.0000 O   0  5  0  0  0  0  0  0  0  0  0  0
    2.3640    0.0000    0.0000 S   0  0  0  0  0  0  0  0  0  0  0  0
    1.5400    0.0000    0.0000 O   0  5  0  0  0  0  0  0  0  0  0  0
  2  5  2  0  0  0  0
  3  5  2  0  0  0  0
  4  5  1  0  0  0  0
  5  6  1  0  0  0  0
M  CHG  3   1   2   4  -1   6  -1
M  END
>  <DATABASE_ID>
DB00653

>  <DATABASE_NAME>
drugbank

>  <SMILES>
S(=O)(=O)([O-])[O-].[Mg+2]

>  <INCHI_IDENTIFIER>
InChI=1S/Mg.H2O4S/c;1-5(2,3)4/h;(H2,1,2,3,4)/q+2;/p-2

>  <INCHI_KEY>
InChIKey=CSNNHWWHGAXBCP-UHFFFAOYSA-L

>  <JCHEM_ACCEPTOR_COUNT>
4

>  <JCHEM_AVERAGE_POLARIZABILITY>
5.8052917

>  <JCHEM_BIOAVAILABILITY>
1

>  <JCHEM_DONOR_COUNT>
0

>  <JCHEM_EXACT_MASS>
119.93677

>  <JCHEM_FORMAL_CHARGE>
0

>  <JCHEM_FORMULA>
MgO4S

>  <JCHEM_GHOSE_FILTER>
0

>  <JCHEM_IUPAC>
magnesium(2+) ion sulfate

>  <JCHEM_LOGP>
-0.84155202

>  <JCHEM_MASS>
120.368

>  <JCHEM_MDDR_LIKE_RULE>
0

>  <JCHEM_NUMBER_OF_RINGS>
0

>  <JCHEM_PHYSIOLOGICAL_CHARGE>
-2

>  <JCHEM_PKA>
1.8964254

>  <JCHEM_PKA_STRONGEST_ACIDIC>
-3.034349

>  <JCHEM_POLAR_SURFACE_AREA>
80.260002

>  <JCHEM_REFRACTIVITY>
11.5274

>  <JCHEM_ROTATABLE_BOND_COUNT>
0

>  <JCHEM_RULE_OF_FIVE>
1

>  <JCHEM_TRADITIONAL_IUPAC>
magnesium sulfate

>  <JCHEM_VEBER_RULE>
0

>  <DRUGBANK_ID>
DB00653

>  <DRUG_GROUPS>
approved

>  <GENERIC_NAME>
Magnesium Sulfate

>  <SYNONYMS>
Magnesium sulphate

$$$$
Estrone
 OpenBabel02121510022D

 23 26  0  0  1  0  0  0  0  0999 V2000
    7.5770    1.7950    0.0000 O   0  0  0  0  0  0  0  0  0  0  0  0
    2.0920   -1.7580    0.0000 O   0  0  0  0  0  0  0  0  0  0  0  0
    6.5400   -0.0650    0.0000 C   0  0  2  0  0  0  0  0  0  0  0  0
    6.5400    0.7600    0.0000 C   0  0  2  0  0  0  0  0  0  0  0  0
    5.8260   -0.4770    0.0000 C   0  0  1  0  0  0  0  0  0  0  0  0
    5.1110   -0.0650    0.0000 C   0  0  2  0  0  0  0  0  0  0  0  0
    5.8260    1.1730    0.0000 C   0  0  0  0  0  0  0  0  0  0  0  0
    7.3210   -0.3160    0.0000 C   0  0  0  0  0  0  0  0  0  0  0  0
    5.1110    0.7600    0.0000 C   0  0  0  0  0  0  0  0  0  0  0  0
    5.8390   -1.3360    0.0000 C   0  0  0  0  0  0  0  0  0  0  0  0
    7.3210    1.0110    0.0000 C   0  0  0  0  0  0  0  0  0  0  0  0
    7.8020    0.3480    0.0000 C   0  0  0  0  0  0  0  0  0  0  0  0
    6.5400    1.5850    0.0000 C   0  0  0  0  0  0  0  0  0  0  0  0
    4.3610   -0.4830    0.0000 C   0  0  0  0  0  0  0  0  0  0  0  0
    5.0980   -1.7720    0.0000 C   0  0  0  0  0  0  0  0  0  0  0  0
    4.3540   -1.3420    0.0000 C   0  0  0  0  0  0  0  0  0  0  0  0
    3.5960   -0.0180    0.0000 C   0  0  0  0  0  0  0  0  0  0  0  0
    3.5830   -1.7950    0.0000 C   0  0  0  0  0  0  0  0  0  0  0  0
    2.8140   -0.4530    0.0000 C   0  0  0  0  0  0  0  0  0  0  0  0
    2.8080   -1.3480    0.0000 C   0  0  0  0  0  0  0  0  0  0  0  0
    6.6100   -0.7210    0.0000 H   0  0  0  0  0  0  0  0  0  0  0  0
    6.4000   -0.8030    0.0000 H   0  0  0  0  0  0  0  0  0  0  0  0
    5.6830    0.2650    0.0000 H   0  0  0  0  0  0  0  0  0  0  0  0
  1 11  2  0  0  0  0
  2 20  1  0  0  0  0
  3  4  1  0  0  0  0
  3  5  1  0  0  0  0
  3  8  1  0  0  0  0
  3 21  1  6  0  0  0
  4  7  1  0  0  0  0
  4 11  1  0  0  0  0
  4 13  1  1  0  0  0
  5  6  1  0  0  0  0
  5 10  1  0  0  0  0
  5 22  1  1  0  0  0
  6  9  1  0  0  0  0
  6 14  1  0  0  0  0
  6 23  1  6  0  0  0
  7  9  1  0  0  0  0
  8 12  1  0  0  0  0
 10 15  1  0  0  0  0
 11 12  1  0  0  0  0
 14 16  2  0  0  0  0
 14 17  1  0  0  0  0
 15 16  1  0  0  0  0
 16 18  1  0  0  0  0
 17 19  2  0  0  0  0
 18 20  2  0  0  0  0
 19 20  1  0  0  0  0
M  END
>  <DATABASE_ID>
DB00655

>  <DATABASE_NAME>
drugbank

>  <SMILES>
Oc1cc2CC[C@H]3[C@@H]4CCC(=O)[C@]4(CC[C@@H]3c2cc1)C

>  <INCHI_IDENTIFIER>
InChI=1S/C18H22O2/c1-18-9-8-14-13-5-3-12(19)10-11(13)2-4-15(14)16(18)6-7-17(18)20/h3,5,10,14-16,19H,2,4,6-9H2,1H3/t14-,15-,16+,18+/m1/s1

>  <INCHI_KEY>
InChIKey=DNXHEGUUPJUMQT-CBZIJGRNSA-N

>  <JCHEM_ACCEPTOR_COUNT>
2

>  <JCHEM_AVERAGE_POLARIZABILITY>
31.272371

>  <JCHEM_BIOAVAILABILITY>
1

>  <JCHEM_DONOR_COUNT>
1

>  <JCHEM_EXACT_MASS>
270.16199

>  <JCHEM_FORMAL_CHARGE>
0

>  <JCHEM_FORMULA>
C18H22O2

>  <JCHEM_GHOSE_FILTER>
1

>  <JCHEM_IUPAC>
(1S,10R,11S,15S)-5-hydroxy-15-methyltetracyclo[8.7.0.0^{2,7}.0^{11,15}]heptadeca-2(7),3,5-trien-14-one

>  <ALOGPS_LOGP>
4.0300002

>  <JCHEM_LOGP>
4.3090291

>  <ALOGPS_LOGS>
-4.8400002

>  <JCHEM_MASS>
270.36609

>  <JCHEM_MDDR_LIKE_RULE>
0

>  <JCHEM_NUMBER_OF_RINGS>
4

>  <JCHEM_PHYSIOLOGICAL_CHARGE>
0

>  <JCHEM_PKA>
19.957535

>  <JCHEM_PKA_STRONGEST_ACIDIC>
10.326958

>  <JCHEM_PKA_STRONGEST_BASIC>
-5.4482994

>  <JCHEM_POLAR_SURFACE_AREA>
37.299999

>  <JCHEM_REFRACTIVITY>
79.082397

>  <JCHEM_ROTATABLE_BOND_COUNT>
0

>  <JCHEM_RULE_OF_FIVE>
1

>  <ALOGPS_SOLUBILITY>
3.94e-03 g/l

>  <JCHEM_TRADITIONAL_IUPAC>
estrone

>  <JCHEM_VEBER_RULE>
1

>  <DRUGBANK_ID>
DB00655

>  <DRUG_GROUPS>
approved

>  <GENERIC_NAME>
Estrone

>  <SYNONYMS>
3-Hydroxy-1,3,5(10)-estratrien-17-one; Estrona; Estrone; Estronum; follicular hormone; Oestrone

>  <BRANDS>
Estrone

$$$$
Trazodone
 OpenBabel02121510022D

 26 29  0  0  0  0  0  0  0  0999 V2000
    7.6410   -3.5820    0.0000 Cl  0  0  0  0  0  0  0  0  0  0  0  0
    4.1160    3.5820    0.0000 O   0  0  0  0  0  0  0  0  0  0  0  0
    6.8160    0.7050    0.0000 N   0  0  0  0  0  0  0  0  0  0  0  0
    7.6410   -0.7240    0.0000 N   0  0  0  0  0  0  0  0  0  0  0  0
    4.3410    2.1340    0.0000 N   0  0  0  0  0  0  0  0  0  0  0  0
    3.0790    2.5460    0.0000 N   0  0  0  0  0  0  0  0  0  0  0  0
    3.8600    1.4700    0.0000 N   0  0  0  0  0  0  0  0  0  0  0  0
    6.4040   -0.0100    0.0000 C   0  0  0  0  0  0  0  0  0  0  0  0
    7.6410    0.7050    0.0000 C   0  0  0  0  0  0  0  0  0  0  0  0
    6.8160   -0.7240    0.0000 C   0  0  0  0  0  0  0  0  0  0  0  0
    8.0540   -0.0100    0.0000 C   0  0  0  0  0  0  0  0  0  0  0  0
    6.4040    1.4190    0.0000 C   0  0  0  0  0  0  0  0  0  0  0  0
    5.5790    1.4190    0.0000 C   0  0  0  0  0  0  0  0  0  0  0  0
    5.1660    2.1340    0.0000 C   0  0  0  0  0  0  0  0  0  0  0  0
    8.0540   -1.4390    0.0000 C   0  0  0  0  0  0  0  0  0  0  0  0
    7.6410   -2.1530    0.0000 C   0  0  0  0  0  0  0  0  0  0  0  0
    8.8790   -1.4390    0.0000 C   0  0  0  0  0  0  0  0  0  0  0  0
    3.8600    2.7980    0.0000 C   0  0  0  0  0  0  0  0  0  0  0  0
    3.0790    1.7210    0.0000 C   0  0  0  0  0  0  0  0  0  0  0  0
    8.0540   -2.8680    0.0000 C   0  0  0  0  0  0  0  0  0  0  0  0
    9.2910   -2.1530    0.0000 C   0  0  0  0  0  0  0  0  0  0  0  0
    8.8790   -2.8680    0.0000 C   0  0  0  0  0  0  0  0  0  0  0  0
    2.3640    2.9590    0.0000 C   0  0  0  0  0  0  0  0  0  0  0  0
    2.3640    1.3090    0.0000 C   0  0  0  0  0  0  0  0  0  0  0  0
    1.6500    2.5460    0.0000 C   0  0  0  0  0  0  0  0  0  0  0  0
    1.6500    1.7210    0.0000 C   0  0  0  0  0  0  0  0  0  0  0  0
  1 20  1  0  0  0  0
  2 18  2  0  0  0  0
  3  8  1  0  0  0  0
  3  9  1  0  0  0  0
  3 12  1  0  0  0  0
  4 10  1  0  0  0  0
  4 11  1  0  0  0  0
  4 15  1  0  0  0  0
  5  7  1  0  0  0  0
  5 14  1  0  0  0  0
  5 18  1  0  0  0  0
  6 18  1  0  0  0  0
  6 19  1  0  0  0  0
  6 23  1  0  0  0  0
  7 19  2  0  0  0  0
  8 10  1  0  0  0  0
  9 11  1  0  0  0  0
 12 13  1  0  0  0  0
 13 14  1  0  0  0  0
 15 16  2  0  0  0  0
 15 17  1  0  0  0  0
 16 20  1  0  0  0  0
 17 21  2  0  0  0  0
 19 24  1  0  0  0  0
 20 22  2  0  0  0  0
 21 22  1  0  0  0  0
 23 25  2  0  0  0  0
 24 26  2  0  0  0  0
 25 26  1  0  0  0  0
M  END
>  <DATABASE_ID>
DB00656

>  <DATABASE_NAME>
drugbank

>  <SMILES>
Clc1cc(N2CCN(CC2)CCCN2N=C3N(C=CC=C3)C2=O)ccc1

>  <INCHI_IDENTIFIER>
InChI=1S/C19H22ClN5O/c20-16-5-3-6-17(15-16)23-13-11-22(12-14-23)8-4-10-25-19(26)24-9-2-1-7-18(24)21-25/h1-3,5-7,9,15H,4,8,10-14H2

>  <INCHI_KEY>
InChIKey=PHLBKPHSAVXXEF-UHFFFAOYSA-N

>  <JCHEM_ACCEPTOR_COUNT>
4

>  <JCHEM_AVERAGE_POLARIZABILITY>
40.122868

>  <JCHEM_BIOAVAILABILITY>
1

>  <JCHEM_DONOR_COUNT>
0

>  <JCHEM_EXACT_MASS>
371.15128

>  <JCHEM_FORMAL_CHARGE>
0

>  <JCHEM_FORMULA>
C19H22ClN5O

>  <JCHEM_GHOSE_FILTER>
1

>  <JCHEM_IUPAC>
2-{3-[4-(3-chlorophenyl)piperazin-1-yl]propyl}-2H,3H-[1,2,4]triazolo[4,3-a]pyridin-3-one

>  <ALOGPS_LOGP>
2.6800001

>  <JCHEM_LOGP>
3.1318567

>  <ALOGPS_LOGS>
-3.1099999

>  <JCHEM_MASS>
371.86401

>  <JCHEM_MDDR_LIKE_RULE>
0

>  <JCHEM_NUMBER_OF_RINGS>
4

>  <JCHEM_PHYSIOLOGICAL_CHARGE>
1

>  <JCHEM_PKA_STRONGEST_BASIC>
7.0880442

>  <JCHEM_POLAR_SURFACE_AREA>
42.389999

>  <JCHEM_REFRACTIVITY>
105.8796

>  <JCHEM_ROTATABLE_BOND_COUNT>
5

>  <JCHEM_RULE_OF_FIVE>
1

>  <ALOGPS_SOLUBILITY>
2.90e-01 g/l

>  <JCHEM_TRADITIONAL_IUPAC>
trazodone

>  <JCHEM_VEBER_RULE>
0

>  <DRUGBANK_ID>
DB00656

>  <DRUG_GROUPS>
approved; investigational

>  <GENERIC_NAME>
Trazodone

>  <SYNONYMS>
Trazodona; Trazodonum

>  <BRANDS>
Beneficat; Deprax; Desirel; Desyrel; Desyrel Dividose; Mesyrel; Molipaxin; Oleptro; Thombran; Trazorel; Trialodine; Trittico

>  <SALTS>
Trazodone Hydrochloride

$$$$
Mecamylamine
 OpenBabel02121510022D

 12 13  0  0  1  0  0  0  0  0999 V2000
    2.5470   -1.1420    0.0000 N   0  0  0  0  0  0  0  0  0  0  0  0
    1.9710    0.0670    0.0000 C   0  0  0  0  0  0  0  0  0  0  0  0
    2.3060   -0.5150    0.0000 C   0  0  3  0  0  0  0  0  0  0  0  0
    3.6440    0.8060    0.0000 C   0  0  3  0  0  0  0  0  0  0  0  0
    3.4700    0.1570    0.0000 C   0  0  3  0  0  0  0  0  0  0  0  0
    3.1490    1.4660    0.0000 C   0  0  0  0  0  0  0  0  0  0  0  0
    4.8750    0.2960    0.0000 C   0  0  0  0  0  0  0  0  0  0  0  0
    4.7010   -0.3530    0.0000 C   0  0  0  0  0  0  0  0  0  0  0  0
    1.5480    0.5890    0.0000 C   0  0  0  0  0  0  0  0  0  0  0  0
    1.3440   -0.1740    0.0000 C   0  0  0  0  0  0  0  0  0  0  0  0
    1.7840   -0.9380    0.0000 C   0  0  0  0  0  0  0  0  0  0  0  0
    3.2110   -1.2470    0.0000 C   0  0  0  0  0  0  0  0  0  0  0  0
  1  3  1  0  0  0  0
  1 12  1  0  0  0  0
  2  3  1  0  0  0  0
  2  4  1  0  0  0  0
  2  9  1  0  0  0  0
  2 10  1  0  0  0  0
  3  5  1  0  0  0  0
  3 11  1  0  0  0  0
  4  6  1  0  0  0  0
  4  7  1  0  0  0  0
  5  6  1  0  0  0  0
  5  8  1  0  0  0  0
  7  8  1  0  0  0  0
M  END
>  <DATABASE_ID>
DB00657

>  <DATABASE_NAME>
drugbank

>  <SMILES>
N(C)C1(C2CC(CC2)C1(C)C)C

>  <INCHI_IDENTIFIER>
InChI=1S/C11H21N/c1-10(2)8-5-6-9(7-8)11(10,3)12-4/h8-9,12H,5-7H2,1-4H3

>  <INCHI_KEY>
InChIKey=IMYZQPCYWPFTAG-UHFFFAOYSA-N

>  <JCHEM_ACCEPTOR_COUNT>
1

>  <JCHEM_AVERAGE_POLARIZABILITY>
20.741173

>  <JCHEM_BIOAVAILABILITY>
1

>  <JCHEM_DONOR_COUNT>
1

>  <JCHEM_EXACT_MASS>
167.1674

>  <JCHEM_FORMAL_CHARGE>
0

>  <JCHEM_FORMULA>
C11H21N

>  <JCHEM_GHOSE_FILTER>
1

>  <JCHEM_IUPAC>
N,2,3,3-tetramethylbicyclo[2.2.1]heptan-2-amine

>  <ALOGPS_LOGP>
3.1300001

>  <JCHEM_LOGP>
2.3736398

>  <ALOGPS_LOGS>
-3.1300001

>  <JCHEM_MASS>
167.29111

>  <JCHEM_MDDR_LIKE_RULE>
0

>  <JCHEM_NUMBER_OF_RINGS>
2

>  <JCHEM_PHYSIOLOGICAL_CHARGE>
1

>  <JCHEM_PKA_STRONGEST_BASIC>
10.875986

>  <JCHEM_POLAR_SURFACE_AREA>
12.03

>  <JCHEM_REFRACTIVITY>
51.8325

>  <JCHEM_ROTATABLE_BOND_COUNT>
1

>  <JCHEM_RULE_OF_FIVE>
1

>  <ALOGPS_SOLUBILITY>
1.24e-01 g/l

>  <JCHEM_TRADITIONAL_IUPAC>
mecamylamine

>  <JCHEM_VEBER_RULE>
1

>  <DRUGBANK_ID>
DB00657

>  <DRUG_GROUPS>
approved

>  <GENERIC_NAME>
Mecamylamine

>  <BRANDS>
Inversine; Vecamyl

>  <SALTS>
Mecamylamine hydrochloride

$$$$
Sevelamer
 OpenBabel02121510022D

  9  8  0  0  1  0  0  0  0  0999 V2000
    0.1470    0.8040    0.0000 Cl  0  0  0  0  0  0  0  0  0  0  0  0
    1.9890    1.5190    0.0000 O   0  0  0  0  0  0  0  0  0  0  0  0
    0.4430    3.6800    0.0000 N   0  0  0  0  0  0  0  0  0  0  0  0
    1.5760    0.8040    0.0000 C   0  0  3  0  0  0  0  0  0  0  0  0
    2.4010    0.8040    0.0000 C   0  0  0  0  0  0  0  0  0  0  0  0
    0.8620    0.3920    0.0000 C   0  0  0  0  0  0  0  0  0  0  0  0
    1.1580    4.0930    0.0000 C   0  0  0  0  0  0  0  0  0  0  0  0
    1.8720    3.6800    0.0000 C   0  0  0  0  0  0  0  0  0  0  0  0
    2.5860    4.0930    0.0000 C   0  0  0  0  0  0  0  0  0  0  0  0
  1  6  1  0  0  0  0
  2  4  1  0  0  0  0
  2  5  1  0  0  0  0
  3  7  1  0  0  0  0
  4  5  1  0  0  0  0
  4  6  1  0  0  0  0
  7  8  1  0  0  0  0
  8  9  2  0  0  0  0
M  END
>  <DATABASE_ID>
DB00658

>  <DATABASE_NAME>
drugbank

>  <SMILES>
ClCC1OC1.NCC=C

>  <INCHI_IDENTIFIER>
InChI=1S/C3H5ClO.C3H7N/c4-1-3-2-5-3;1-2-3-4/h3H,1-2H2;2H,1,3-4H2

>  <INCHI_KEY>
InChIKey=ZNSIZMQNQCNRBW-UHFFFAOYSA-N

>  <JCHEM_ACCEPTOR_COUNT>
1

>  <JCHEM_AVERAGE_POLARIZABILITY>
8.3787127

>  <JCHEM_BIOAVAILABILITY>
1

>  <JCHEM_DONOR_COUNT>
0

>  <JCHEM_EXACT_MASS>
149.06075

>  <JCHEM_FORMAL_CHARGE>
0

>  <JCHEM_FORMULA>
C6H12ClNO

>  <JCHEM_GHOSE_FILTER>
0

>  <JCHEM_IUPAC>
2-(chloromethyl)oxirane; prop-2-en-1-amine

>  <JCHEM_LOGP>
0.67728138

>  <JCHEM_MASS>
149.619

>  <JCHEM_MDDR_LIKE_RULE>
0

>  <JCHEM_NUMBER_OF_RINGS>
1

>  <JCHEM_PHYSIOLOGICAL_CHARGE>
0

>  <JCHEM_PKA_STRONGEST_BASIC>
-4.1873693

>  <JCHEM_POLAR_SURFACE_AREA>
12.53

>  <JCHEM_REFRACTIVITY>
20.056999

>  <JCHEM_ROTATABLE_BOND_COUNT>
2

>  <JCHEM_RULE_OF_FIVE>
1

>  <JCHEM_TRADITIONAL_IUPAC>
allylamine; epichlorohydrin

>  <JCHEM_VEBER_RULE>
1

>  <DRUGBANK_ID>
DB00658

>  <DRUG_GROUPS>
approved

>  <GENERIC_NAME>
Sevelamer

>  <SYNONYMS>
Sevelamer; Sévélamer; Sevelamero; Sevelamerum

>  <BRANDS>
Phosblock; Renagel; Renvela

>  <SALTS>
sevelamer carbonate; sevelamer hydrochloride

$$$$
Acamprosate
 OpenBabel02121510022D

 11 10  0  0  0  0  0  0  0  0999 V2000
    2.8080   -0.2620    0.0000 S   0  0  0  0  0  0  0  0  0  0  0  0
    2.0930   -0.6740    0.0000 O   0  0  0  0  0  0  0  0  0  0  0  0
    2.3950    0.4530    0.0000 O   0  0  0  0  0  0  0  0  0  0  0  0
    3.2200   -0.9760    0.0000 O   0  0  0  0  0  0  0  0  0  0  0  0
    6.3800    0.9760    0.0000 O   0  0  0  0  0  0  0  0  0  0  0  0
    5.6660   -0.2620    0.0000 N   0  0  0  0  0  0  0  0  0  0  0  0
    4.2360   -0.2620    0.0000 C   0  0  0  0  0  0  0  0  0  0  0  0
    3.5220    0.1510    0.0000 C   0  0  0  0  0  0  0  0  0  0  0  0
    4.9510    0.1510    0.0000 C   0  0  0  0  0  0  0  0  0  0  0  0
    6.3800    0.1510    0.0000 C   0  0  0  0  0  0  0  0  0  0  0  0
    7.0940   -0.2620    0.0000 C   0  0  0  0  0  0  0  0  0  0  0  0
  1  2  1  0  0  0  0
  1  3  2  0  0  0  0
  1  4  2  0  0  0  0
  1  8  1  0  0  0  0
  5 10  2  0  0  0  0
  6  9  1  0  0  0  0
  6 10  1  0  0  0  0
  7  8  1  0  0  0  0
  7  9  1  0  0  0  0
 10 11  1  0  0  0  0
M  END
>  <DATABASE_ID>
DB00659

>  <DATABASE_NAME>
drugbank

>  <SMILES>
S(O)(=O)(=O)CCCNC(=O)C

>  <INCHI_IDENTIFIER>
InChI=1S/C5H11NO4S/c1-5(7)6-3-2-4-11(8,9)10/h2-4H2,1H3,(H,6,7)(H,8,9,10)

>  <INCHI_KEY>
InChIKey=AFCGFAGUEYAMAO-UHFFFAOYSA-N

>  <JCHEM_ACCEPTOR_COUNT>
4

>  <JCHEM_AVERAGE_POLARIZABILITY>
17.165783

>  <JCHEM_BIOAVAILABILITY>
1

>  <JCHEM_DONOR_COUNT>
2

>  <JCHEM_EXACT_MASS>
181.04088

>  <JCHEM_FORMAL_CHARGE>
0

>  <JCHEM_FORMULA>
C5H11NO4S

>  <JCHEM_GHOSE_FILTER>
0

>  <JCHEM_IUPAC>
3-acetamidopropane-1-sulfonic acid

>  <ALOGPS_LOGP>
-1.79

>  <JCHEM_LOGP>
-2.8292274

>  <ALOGPS_LOGS>
-0.98000002

>  <JCHEM_MASS>
181.21001

>  <JCHEM_MDDR_LIKE_RULE>
0

>  <JCHEM_NUMBER_OF_RINGS>
0

>  <JCHEM_PHYSIOLOGICAL_CHARGE>
-1

>  <JCHEM_PKA>
15.123798

>  <JCHEM_PKA_STRONGEST_ACIDIC>
-1.1448904

>  <JCHEM_PKA_STRONGEST_BASIC>
-0.4699502

>  <JCHEM_POLAR_SURFACE_AREA>
83.470001

>  <JCHEM_REFRACTIVITY>
38.914299

>  <JCHEM_ROTATABLE_BOND_COUNT>
4

>  <JCHEM_RULE_OF_FIVE>
1

>  <ALOGPS_SOLUBILITY>
1.88e+01 g/l

>  <JCHEM_TRADITIONAL_IUPAC>
acamprosate

>  <JCHEM_VEBER_RULE>
0

>  <DRUGBANK_ID>
DB00659

>  <DRUG_GROUPS>
approved; investigational

>  <GENERIC_NAME>
Acamprosate

>  <SYNONYMS>
N-acetyl homotaurine

>  <BRANDS>
Campral; Regtect

>  <SALTS>
Acamprosate Calcium

$$$$
Metaxalone
 OpenBabel02121510022D

 16 17  0  0  1  0  0  0  0  0999 V2000
    4.4610    1.3730    0.0000 O   0  0  0  0  0  0  0  0  0  0  0  0
    3.0790   -0.3500    0.0000 O   0  0  0  0  0  0  0  0  0  0  0  0
    4.6910    2.8250    0.0000 O   0  0  0  0  0  0  0  0  0  0  0  0
    3.3810    2.1570    0.0000 N   0  0  0  0  0  0  0  0  0  0  0  0
    3.7940    0.8880    0.0000 C   0  0  3  0  0  0  0  0  0  0  0  0
    3.1260    1.3730    0.0000 C   0  0  0  0  0  0  0  0  0  0  0  0
    3.7940    0.0630    0.0000 C   0  0  0  0  0  0  0  0  0  0  0  0
    4.2060    2.1570    0.0000 C   0  0  0  0  0  0  0  0  0  0  0  0
    3.0790   -1.1750    0.0000 C   0  0  0  0  0  0  0  0  0  0  0  0
    3.7940   -1.5870    0.0000 C   0  0  0  0  0  0  0  0  0  0  0  0
    2.3640   -1.5870    0.0000 C   0  0  0  0  0  0  0  0  0  0  0  0
    3.7940   -2.4120    0.0000 C   0  0  0  0  0  0  0  0  0  0  0  0
    2.3640   -2.4120    0.0000 C   0  0  0  0  0  0  0  0  0  0  0  0
    3.0790   -2.8250    0.0000 C   0  0  0  0  0  0  0  0  0  0  0  0
    4.5080   -2.8250    0.0000 C   0  0  0  0  0  0  0  0  0  0  0  0
    1.6500   -2.8250    0.0000 C   0  0  0  0  0  0  0  0  0  0  0  0
  1  5  1  0  0  0  0
  1  8  1  0  0  0  0
  2  7  1  0  0  0  0
  2  9  1  0  0  0  0
  3  8  2  0  0  0  0
  4  6  1  0  0  0  0
  4  8  1  0  0  0  0
  5  6  1  0  0  0  0
  5  7  1  0  0  0  0
  9 10  2  0  0  0  0
  9 11  1  0  0  0  0
 10 12  1  0  0  0  0
 11 13  2  0  0  0  0
 12 14  2  0  0  0  0
 12 15  1  0  0  0  0
 13 14  1  0  0  0  0
 13 16  1  0  0  0  0
M  END
>  <DATABASE_ID>
DB00660

>  <DATABASE_NAME>
drugbank

>  <SMILES>
O1C(CNC1=O)COc1cc(cc(c1)C)C

>  <INCHI_IDENTIFIER>
InChI=1S/C12H15NO3/c1-8-3-9(2)5-10(4-8)15-7-11-6-13-12(14)16-11/h3-5,11H,6-7H2,1-2H3,(H,13,14)

>  <INCHI_KEY>
InChIKey=IMWZZHHPURKASS-UHFFFAOYSA-N

>  <JCHEM_ACCEPTOR_COUNT>
2

>  <JCHEM_AVERAGE_POLARIZABILITY>
23.739775

>  <JCHEM_BIOAVAILABILITY>
1

>  <JCHEM_DONOR_COUNT>
1

>  <JCHEM_EXACT_MASS>
221.10519

>  <JCHEM_FORMAL_CHARGE>
0

>  <JCHEM_FORMULA>
C12H15NO3

>  <JCHEM_GHOSE_FILTER>
1

>  <JCHEM_IUPAC>
5-(3,5-dimethylphenoxymethyl)-1,3-oxazolidin-2-one

>  <ALOGPS_LOGP>
1.63

>  <JCHEM_LOGP>
2.3718133

>  <ALOGPS_LOGS>
-2.24

>  <JCHEM_MASS>
221.2524

>  <JCHEM_MDDR_LIKE_RULE>
0

>  <JCHEM_NUMBER_OF_RINGS>
2

>  <JCHEM_PHYSIOLOGICAL_CHARGE>
0

>  <JCHEM_PKA_STRONGEST_ACIDIC>
13.143909

>  <JCHEM_PKA_STRONGEST_BASIC>
-4.8531752

>  <JCHEM_POLAR_SURFACE_AREA>
47.560001

>  <JCHEM_REFRACTIVITY>
59.321999

>  <JCHEM_ROTATABLE_BOND_COUNT>
3

>  <JCHEM_RULE_OF_FIVE>
1

>  <ALOGPS_SOLUBILITY>
1.28e+00 g/l

>  <JCHEM_TRADITIONAL_IUPAC>
metaxalone

>  <JCHEM_VEBER_RULE>
0

>  <DRUGBANK_ID>
DB00660

>  <DRUG_GROUPS>
approved

>  <GENERIC_NAME>
Metaxalone

>  <SYNONYMS>
Metassalone; Metaxalon; Metaxalona; Metaxalonum

>  <BRANDS>
Metaxalone; Skelaxin

$$$$
Verapamil
 OpenBabel02121510022D

 33 34  0  0  1  0  0  0  0  0999 V2000
    2.3640   -2.0480    0.0000 O   0  0  0  0  0  0  0  0  0  0  0  0
    3.7940   -2.8730    0.0000 O   0  0  0  0  0  0  0  0  0  0  0  0
    9.9810    1.1420    0.0000 O   0  0  0  0  0  0  0  0  0  0  0  0
   10.8060    2.5710    0.0000 O   0  0  0  0  0  0  0  0  0  0  0  0
    6.2690    1.8560    0.0000 N   0  0  0  0  0  0  0  0  0  0  0  0
    2.1440    0.4270    0.0000 N   0  0  0  0  0  0  0  0  0  0  0  0
    3.7940    0.4270    0.0000 C   0  0  3  0  0  0  0  0  0  0  0  0
    3.7940    1.2520    0.0000 C   0  0  0  0  0  0  0  0  0  0  0  0
    4.6180    0.4270    0.0000 C   0  0  0  0  0  0  0  0  0  0  0  0
    5.0310    1.1420    0.0000 C   0  0  0  0  0  0  0  0  0  0  0  0
    3.7940   -0.3980    0.0000 C   0  0  0  0  0  0  0  0  0  0  0  0
    5.8560    1.1420    0.0000 C   0  0  0  0  0  0  0  0  0  0  0  0
    3.0790    1.6650    0.0000 C   0  0  0  0  0  0  0  0  0  0  0  0
    4.5080    1.6650    0.0000 C   0  0  0  0  0  0  0  0  0  0  0  0
    2.9680    0.4270    0.0000 C   0  0  0  0  0  0  0  0  0  0  0  0
    3.0790   -0.8100    0.0000 C   0  0  0  0  0  0  0  0  0  0  0  0
    4.5080   -0.8100    0.0000 C   0  0  0  0  0  0  0  0  0  0  0  0
    7.0940    1.8560    0.0000 C   0  0  0  0  0  0  0  0  0  0  0  0
    3.0790   -1.6350    0.0000 C   0  0  0  0  0  0  0  0  0  0  0  0
    5.8560    2.5710    0.0000 C   0  0  0  0  0  0  0  0  0  0  0  0
    4.5080   -1.6350    0.0000 C   0  0  0  0  0  0  0  0  0  0  0  0
    7.5060    2.5710    0.0000 C   0  0  0  0  0  0  0  0  0  0  0  0
    3.7940   -2.0480    0.0000 C   0  0  0  0  0  0  0  0  0  0  0  0
    8.3310    2.5710    0.0000 C   0  0  0  0  0  0  0  0  0  0  0  0
    8.7440    1.8560    0.0000 C   0  0  0  0  0  0  0  0  0  0  0  0
    8.7440    3.2850    0.0000 C   0  0  0  0  0  0  0  0  0  0  0  0
    9.5690    1.8560    0.0000 C   0  0  0  0  0  0  0  0  0  0  0  0
    1.6500   -1.6350    0.0000 C   0  0  0  0  0  0  0  0  0  0  0  0
    9.5690    3.2850    0.0000 C   0  0  0  0  0  0  0  0  0  0  0  0
    9.9810    2.5710    0.0000 C   0  0  0  0  0  0  0  0  0  0  0  0
    4.5080   -3.2850    0.0000 C   0  0  0  0  0  0  0  0  0  0  0  0
   10.8060    1.1420    0.0000 C   0  0  0  0  0  0  0  0  0  0  0  0
   11.2190    3.2850    0.0000 C   0  0  0  0  0  0  0  0  0  0  0  0
  1 19  1  0  0  0  0
  1 28  1  0  0  0  0
  2 23  1  0  0  0  0
  2 31  1  0  0  0  0
  3 27  1  0  0  0  0
  3 32  1  0  0  0  0
  4 30  1  0  0  0  0
  4 33  1  0  0  0  0
  5 12  1  0  0  0  0
  5 18  1  0  0  0  0
  5 20  1  0  0  0  0
  6 15  3  0  0  0  0
  7  8  1  0  0  0  0
  7  9  1  0  0  0  0
  7 11  1  0  0  0  0
  7 15  1  0  0  0  0
  8 13  1  0  0  0  0
  8 14  1  0  0  0  0
  9 10  1  0  0  0  0
 10 12  1  0  0  0  0
 11 16  2  0  0  0  0
 11 17  1  0  0  0  0
 16 19  1  0  0  0  0
 17 21  2  0  0  0  0
 18 22  1  0  0  0  0
 19 23  2  0  0  0  0
 21 23  1  0  0  0  0
 22 24  1  0  0  0  0
 24 25  2  0  0  0  0
 24 26  1  0  0  0  0
 25 27  1  0  0  0  0
 26 29  2  0  0  0  0
 27 30  2  0  0  0  0
 29 30  1  0  0  0  0
M  END
>  <DATABASE_ID>
DB00661

>  <DATABASE_NAME>
drugbank

>  <SMILES>
O(C)c1cc(ccc1OC)C(C(C)C)(CCCN(CCc1cc(OC)c(OC)cc1)C)C#N

>  <INCHI_IDENTIFIER>
InChI=1S/C27H38N2O4/c1-20(2)27(19-28,22-10-12-24(31-5)26(18-22)33-7)14-8-15-29(3)16-13-21-9-11-23(30-4)25(17-21)32-6/h9-12,17-18,20H,8,13-16H2,1-7H3

>  <INCHI_KEY>
InChIKey=SGTNSNPWRIOYBX-UHFFFAOYSA-N

>  <JCHEM_ACCEPTOR_COUNT>
6

>  <JCHEM_AVERAGE_POLARIZABILITY>
51.695133

>  <JCHEM_BIOAVAILABILITY>
0

>  <JCHEM_DONOR_COUNT>
0

>  <JCHEM_EXACT_MASS>
454.28317

>  <JCHEM_FORMAL_CHARGE>
0

>  <JCHEM_FORMULA>
C27H38N2O4

>  <JCHEM_GHOSE_FILTER>
0

>  <JCHEM_IUPAC>
2-(3,4-dimethoxyphenyl)-5-{[2-(3,4-dimethoxyphenyl)ethyl](methyl)amino}-2-(propan-2-yl)pentanenitrile

>  <ALOGPS_LOGP>
5.23

>  <JCHEM_LOGP>
5.0431857

>  <ALOGPS_LOGS>
-5.0599999

>  <JCHEM_MASS>
454.60159

>  <JCHEM_MDDR_LIKE_RULE>
0

>  <JCHEM_NUMBER_OF_RINGS>
2

>  <JCHEM_PHYSIOLOGICAL_CHARGE>
1

>  <JCHEM_PKA_STRONGEST_BASIC>
9.6784439

>  <JCHEM_POLAR_SURFACE_AREA>
63.950001

>  <JCHEM_REFRACTIVITY>
132.6479

>  <JCHEM_ROTATABLE_BOND_COUNT>
13

>  <JCHEM_RULE_OF_FIVE>
0

>  <ALOGPS_SOLUBILITY>
3.94e-03 g/l

>  <JCHEM_TRADITIONAL_IUPAC>
verapamil

>  <JCHEM_VEBER_RULE>
0

>  <DRUGBANK_ID>
DB00661

>  <DRUG_GROUPS>
approved

>  <GENERIC_NAME>
Verapamil

>  <SYNONYMS>
Iproveratril ; Vérapamil; Verapamil; Verapamilo; Verapamilum

>  <BRANDS>
Bosoptin; Calan; Calan SR; Covera-HS; Isoptin; Isoptin SR; Verelan; Verelan PM; Verisop; Vermin; Vermine; Verogalid; Verogalid ER; Verpamil; Vertab; Vetrimil; Zolvera

>  <SALTS>
Verapamil Hydrochloride

$$$$
Trimethobenzamide
 OpenBabel02121510022D

 28 29  0  0  0  0  0  0  0  0999 V2000
    7.3660    2.0620    0.0000 O   0  0  0  0  0  0  0  0  0  0  0  0
    2.3640   -3.3000    0.0000 O   0  0  0  0  0  0  0  0  0  0  0  0
    5.2220   -3.3000    0.0000 O   0  0  0  0  0  0  0  0  0  0  0  0
    3.7940   -4.1250    0.0000 O   0  0  0  0  0  0  0  0  0  0  0  0
    3.0790   -0.4120    0.0000 O   0  0  0  0  0  0  0  0  0  0  0  0
    8.0800    4.1250    0.0000 N   0  0  0  0  0  0  0  0  0  0  0  0
    4.5080   -0.4120    0.0000 N   0  0  0  0  0  0  0  0  0  0  0  0
    8.0800    3.3000    0.0000 C   0  0  0  0  0  0  0  0  0  0  0  0
    5.2220    0.8250    0.0000 C   0  0  0  0  0  0  0  0  0  0  0  0
    4.5080    0.4120    0.0000 C   0  0  0  0  0  0  0  0  0  0  0  0
    7.3660    2.8880    0.0000 C   0  0  0  0  0  0  0  0  0  0  0  0
    6.6520    1.6500    0.0000 C   0  0  0  0  0  0  0  0  0  0  0  0
    3.7940   -1.6500    0.0000 C   0  0  0  0  0  0  0  0  0  0  0  0
    5.2220    1.6500    0.0000 C   0  0  0  0  0  0  0  0  0  0  0  0
    5.9370    0.4120    0.0000 C   0  0  0  0  0  0  0  0  0  0  0  0
    5.9370    2.0620    0.0000 C   0  0  0  0  0  0  0  0  0  0  0  0
    6.6520    0.8250    0.0000 C   0  0  0  0  0  0  0  0  0  0  0  0
    3.7940   -0.8250    0.0000 C   0  0  0  0  0  0  0  0  0  0  0  0
    4.5080   -2.0620    0.0000 C   0  0  0  0  0  0  0  0  0  0  0  0
    3.0790   -2.0620    0.0000 C   0  0  0  0  0  0  0  0  0  0  0  0
    3.0790   -2.8880    0.0000 C   0  0  0  0  0  0  0  0  0  0  0  0
    4.5080   -2.8880    0.0000 C   0  0  0  0  0  0  0  0  0  0  0  0
    3.7940   -3.3000    0.0000 C   0  0  0  0  0  0  0  0  0  0  0  0
    7.3660    4.5380    0.0000 C   0  0  0  0  0  0  0  0  0  0  0  0
    8.7950    4.5380    0.0000 C   0  0  0  0  0  0  0  0  0  0  0  0
    1.6500   -2.8880    0.0000 C   0  0  0  0  0  0  0  0  0  0  0  0
    5.9370   -2.8880    0.0000 C   0  0  0  0  0  0  0  0  0  0  0  0
    3.0790   -4.5380    0.0000 C   0  0  0  0  0  0  0  0  0  0  0  0
  1 11  1  0  0  0  0
  1 12  1  0  0  0  0
  2 21  1  0  0  0  0
  2 26  1  0  0  0  0
  3 22  1  0  0  0  0
  3 27  1  0  0  0  0
  4 23  1  0  0  0  0
  4 28  1  0  0  0  0
  5 18  2  0  0  0  0
  6  8  1  0  0  0  0
  6 24  1  0  0  0  0
  6 25  1  0  0  0  0
  7 10  1  0  0  0  0
  7 18  1  0  0  0  0
  8 11  1  0  0  0  0
  9 10  1  0  0  0  0
  9 14  2  0  0  0  0
  9 15  1  0  0  0  0
 12 16  2  0  0  0  0
 12 17  1  0  0  0  0
 13 18  1  0  0  0  0
 13 19  1  0  0  0  0
 13 20  2  0  0  0  0
 14 16  1  0  0  0  0
 15 17  2  0  0  0  0
 19 22  2  0  0  0  0
 20 21  1  0  0  0  0
 21 23  2  0  0  0  0
 22 23  1  0  0  0  0
M  END
>  <DATABASE_ID>
DB00662

>  <DATABASE_NAME>
drugbank

>  <SMILES>
O(C)c1c(OC)cc(cc1OC)C(=O)NCc1ccc(OCCN(C)C)cc1

>  <INCHI_IDENTIFIER>
InChI=1S/C21H28N2O5/c1-23(2)10-11-28-17-8-6-15(7-9-17)14-22-21(24)16-12-18(25-3)20(27-5)19(13-16)26-4/h6-9,12-13H,10-11,14H2,1-5H3,(H,22,24)

>  <INCHI_KEY>
InChIKey=FEZBIKUBAYAZIU-UHFFFAOYSA-N

>  <JCHEM_ACCEPTOR_COUNT>
6

>  <JCHEM_AVERAGE_POLARIZABILITY>
43.193859

>  <JCHEM_BIOAVAILABILITY>
1

>  <JCHEM_DONOR_COUNT>
1

>  <JCHEM_EXACT_MASS>
388.19983

>  <JCHEM_FORMAL_CHARGE>
0

>  <JCHEM_FORMULA>
C21H28N2O5

>  <JCHEM_GHOSE_FILTER>
1

>  <JCHEM_IUPAC>
N-({4-[2-(dimethylamino)ethoxy]phenyl}methyl)-3,4,5-trimethoxybenzamide

>  <ALOGPS_LOGP>
2.4400001

>  <JCHEM_LOGP>
2.1599948

>  <ALOGPS_LOGS>
-3.99

>  <JCHEM_MASS>
388.4574

>  <JCHEM_MDDR_LIKE_RULE>
0

>  <JCHEM_NUMBER_OF_RINGS>
2

>  <JCHEM_PHYSIOLOGICAL_CHARGE>
1

>  <JCHEM_PKA_STRONGEST_ACIDIC>
14.361794

>  <JCHEM_PKA_STRONGEST_BASIC>
8.7715359

>  <JCHEM_POLAR_SURFACE_AREA>
69.260002

>  <JCHEM_REFRACTIVITY>
108.5176

>  <JCHEM_ROTATABLE_BOND_COUNT>
10

>  <JCHEM_RULE_OF_FIVE>
1

>  <ALOGPS_SOLUBILITY>
3.98e-02 g/l

>  <JCHEM_TRADITIONAL_IUPAC>
trimethobenzamide

>  <JCHEM_VEBER_RULE>
0

>  <DRUGBANK_ID>
DB00662

>  <DRUG_GROUPS>
approved

>  <GENERIC_NAME>
Trimethobenzamide

>  <SYNONYMS>
Trimethobenzamidum; Trimetobenzamida

>  <BRANDS>
Benzacot; Stemetic; Tebamide; Tigan; Tribenzagan; Trimazide

>  <SALTS>
Trimethobenzamide Hydrochloride

$$$$
Nilutamide
 OpenBabel02121510022D

 22 23  0  0  0  0  0  0  0  0999 V2000
    2.9680    1.7240    0.0000 F   0  0  0  0  0  0  0  0  0  0  0  0
    4.6180    1.7240    0.0000 F   0  0  0  0  0  0  0  0  0  0  0  0
    3.7940    2.5500    0.0000 F   0  0  0  0  0  0  0  0  0  0  0  0
    4.6960   -2.1230    0.0000 O   0  0  0  0  0  0  0  0  0  0  0  0
    6.1480    0.3920    0.0000 O   0  0  0  0  0  0  0  0  0  0  0  0
    1.6500    0.4870    0.0000 O   0  5  0  0  0  0  0  0  0  0  0  0
    2.3640    1.7240    0.0000 O   0  0  0  0  0  0  0  0  0  0  0  0
    5.2220   -0.7500    0.0000 N   0  0  0  0  0  0  0  0  0  0  0  0
    6.5280   -1.0280    0.0000 N   0  0  0  0  0  0  0  0  0  0  0  0
    2.3640    0.9000    0.0000 N   0  3  0  0  0  0  0  0  0  0  0  0
    6.1160   -1.7420    0.0000 C   0  0  0  0  0  0  0  0  0  0  0  0
    5.3090   -1.5710    0.0000 C   0  0  0  0  0  0  0  0  0  0  0  0
    6.8300   -2.1550    0.0000 C   0  0  0  0  0  0  0  0  0  0  0  0
    5.9440   -2.5500    0.0000 C   0  0  0  0  0  0  0  0  0  0  0  0
    5.9760   -0.4150    0.0000 C   0  0  0  0  0  0  0  0  0  0  0  0
    4.5080   -0.3380    0.0000 C   0  0  0  0  0  0  0  0  0  0  0  0
    4.5080    0.4870    0.0000 C   0  0  0  0  0  0  0  0  0  0  0  0
    3.7940   -0.7500    0.0000 C   0  0  0  0  0  0  0  0  0  0  0  0
    3.7940    0.9000    0.0000 C   0  0  0  0  0  0  0  0  0  0  0  0
    3.0790    0.4870    0.0000 C   0  0  0  0  0  0  0  0  0  0  0  0
    3.0790   -0.3380    0.0000 C   0  0  0  0  0  0  0  0  0  0  0  0
    3.7940    1.7240    0.0000 C   0  0  0  0  0  0  0  0  0  0  0  0
  1 22  1  0  0  0  0
  2 22  1  0  0  0  0
  3 22  1  0  0  0  0
  4 12  2  0  0  0  0
  5 15  2  0  0  0  0
  6 10  1  0  0  0  0
  7 10  2  0  0  0  0
  8 12  1  0  0  0  0
  8 15  1  0  0  0  0
  8 16  1  0  0  0  0
  9 11  1  0  0  0  0
  9 15  1  0  0  0  0
 10 20  1  0  0  0  0
 11 12  1  0  0  0  0
 11 13  1  0  0  0  0
 11 14  1  0  0  0  0
 16 17  2  0  0  0  0
 16 18  1  0  0  0  0
 17 19  1  0  0  0  0
 18 21  2  0  0  0  0
 19 20  2  0  0  0  0
 19 22  1  0  0  0  0
 20 21  1  0  0  0  0
M  CHG  2   6  -1  10   1
M  END
>  <DATABASE_ID>
DB00665

>  <DATABASE_NAME>
drugbank

>  <SMILES>
FC(F)(F)c1cc(N2C(=O)C(NC2=O)(C)C)ccc1[N+](=O)[O-]

>  <INCHI_IDENTIFIER>
InChI=1S/C12H10F3N3O4/c1-11(2)9(19)17(10(20)16-11)6-3-4-8(18(21)22)7(5-6)12(13,14)15/h3-5H,1-2H3,(H,16,20)

>  <INCHI_KEY>
InChIKey=XWXYUMMDTVBTOU-UHFFFAOYSA-N

>  <JCHEM_ACCEPTOR_COUNT>
4

>  <JCHEM_AVERAGE_POLARIZABILITY>
25.875971

>  <JCHEM_BIOAVAILABILITY>
1

>  <JCHEM_DONOR_COUNT>
1

>  <JCHEM_EXACT_MASS>
317.06235

>  <JCHEM_FORMAL_CHARGE>
0

>  <JCHEM_FORMULA>
C12H10F3N3O4

>  <JCHEM_GHOSE_FILTER>
1

>  <JCHEM_IUPAC>
5,5-dimethyl-3-[4-nitro-3-(trifluoromethyl)phenyl]imidazolidine-2,4-dione

>  <ALOGPS_LOGP>
1.74

>  <JCHEM_LOGP>
2.2507768

>  <ALOGPS_LOGS>
-4.8800001

>  <JCHEM_MASS>
317.2207

>  <JCHEM_MDDR_LIKE_RULE>
0

>  <JCHEM_NUMBER_OF_RINGS>
2

>  <JCHEM_PHYSIOLOGICAL_CHARGE>
0

>  <JCHEM_PKA_STRONGEST_ACIDIC>
15.009376

>  <JCHEM_PKA_STRONGEST_BASIC>
-4.3820295

>  <JCHEM_POLAR_SURFACE_AREA>
95.230003

>  <JCHEM_REFRACTIVITY>
68.225998

>  <JCHEM_ROTATABLE_BOND_COUNT>
3

>  <JCHEM_RULE_OF_FIVE>
1

>  <ALOGPS_SOLUBILITY>
4.19e-03 g/l

>  <JCHEM_TRADITIONAL_IUPAC>
nilutamide

>  <JCHEM_VEBER_RULE>
0

>  <DRUGBANK_ID>
DB00665

>  <DRUG_GROUPS>
approved

>  <GENERIC_NAME>
Nilutamide

>  <SYNONYMS>
Nilutamida; Nilutamide; Nilutamidum

>  <BRANDS>
Anandron; Nilandron

$$$$
Epinephrine
 OpenBabel02121510022D

 13 13  0  0  1  0  0  0  0  0999 V2000
    2.8080    1.3650    0.0000 O   0  0  0  0  0  0  0  0  0  0  0  0
    2.0930   -1.5220    0.0000 O   0  0  0  0  0  0  0  0  0  0  0  0
    3.5220   -2.3470    0.0000 O   0  0  0  0  0  0  0  0  0  0  0  0
    4.2360    2.1900    0.0000 N   0  0  0  0  0  0  0  0  0  0  0  0
    3.5220    0.9530    0.0000 C   0  0  2  0  0  0  0  0  0  0  0  0
    3.5220    0.1280    0.0000 C   0  0  0  0  0  0  0  0  0  0  0  0
    4.2360    1.3650    0.0000 C   0  0  0  0  0  0  0  0  0  0  0  0
    2.8080   -0.2850    0.0000 C   0  0  0  0  0  0  0  0  0  0  0  0
    4.2360   -0.2850    0.0000 C   0  0  0  0  0  0  0  0  0  0  0  0
    2.8080   -1.1100    0.0000 C   0  0  0  0  0  0  0  0  0  0  0  0
    4.2360   -1.1100    0.0000 C   0  0  0  0  0  0  0  0  0  0  0  0
    3.5220   -1.5220    0.0000 C   0  0  0  0  0  0  0  0  0  0  0  0
    4.9510    2.6030    0.0000 C   0  0  0  0  0  0  0  0  0  0  0  0
  2 10  1  0  0  0  0
  3 12  1  0  0  0  0
  4  7  1  0  0  0  0
  4 13  1  0  0  0  0
  5  1  1  1  0  0  0
  5  6  1  0  0  0  0
  5  7  1  0  0  0  0
  6  8  2  0  0  0  0
  6  9  1  0  0  0  0
  8 10  1  0  0  0  0
  9 11  2  0  0  0  0
 10 12  2  0  0  0  0
 11 12  1  0  0  0  0
M  END
>  <DATABASE_ID>
DB00668

>  <DATABASE_NAME>
drugbank

>  <SMILES>
Oc1cc(ccc1O)[C@@H](O)CNC

>  <INCHI_IDENTIFIER>
InChI=1S/C9H13NO3/c1-10-5-9(13)6-2-3-7(11)8(12)4-6/h2-4,9-13H,5H2,1H3/t9-/m0/s1

>  <INCHI_KEY>
InChIKey=UCTWMZQNUQWSLP-VIFPVBQESA-N

>  <JCHEM_ACCEPTOR_COUNT>
4

>  <JCHEM_AVERAGE_POLARIZABILITY>
19.035704

>  <JCHEM_BIOAVAILABILITY>
1

>  <JCHEM_DONOR_COUNT>
4

>  <JCHEM_EXACT_MASS>
183.08954

>  <JCHEM_FORMAL_CHARGE>
0

>  <JCHEM_FORMULA>
C9H13NO3

>  <JCHEM_GHOSE_FILTER>
0

>  <JCHEM_IUPAC>
4-[(1R)-1-hydroxy-2-(methylamino)ethyl]benzene-1,2-diol

>  <ALOGPS_LOGP>
-0.81999999

>  <JCHEM_LOGP>
-0.42952928

>  <ALOGPS_LOGS>
-0.99000001

>  <JCHEM_MASS>
183.20441

>  <JCHEM_MDDR_LIKE_RULE>
0

>  <JCHEM_NUMBER_OF_RINGS>
1

>  <JCHEM_PHYSIOLOGICAL_CHARGE>
1

>  <JCHEM_PKA>
12.652804

>  <JCHEM_PKA_STRONGEST_ACIDIC>
9.6942596

>  <JCHEM_PKA_STRONGEST_BASIC>
8.9121723

>  <JCHEM_POLAR_SURFACE_AREA>
72.720001

>  <JCHEM_REFRACTIVITY>
49.230301

>  <JCHEM_ROTATABLE_BOND_COUNT>
3

>  <JCHEM_RULE_OF_FIVE>
1

>  <ALOGPS_SOLUBILITY>
1.86e+01 g/l

>  <JCHEM_TRADITIONAL_IUPAC>
epinephrine

>  <JCHEM_VEBER_RULE>
0

>  <DRUGBANK_ID>
DB00668

>  <DRUG_GROUPS>
approved

>  <GENERIC_NAME>
Epinephrine

>  <SYNONYMS>
(−)-adrenaline; (R)-(-)-Adnephrine; (R)-(-)-Adrenaline; (R)-(-)-Epinephrine; (R)-(-)-Epirenamine; (R)-(−)-adrenaline; Adrenalin; Adrenaline; Epinefrin; Epinefrina; Epinephrin; Epinephrinum; L-Adrenaline; levoepinephrine

>  <BRANDS>
Adrenaclick; Adrenalin; Anapen; Auvi-q; Epi EZ Pen JR; EpiPen; Medihaler-Epi; Primatene; Twinject

>  <SALTS>
Epinephrine bitartrate; Epinephrine chloride

$$$$
Sumatriptan
 OpenBabel02121510022D

 20 21  0  0  0  0  0  0  0  0999 V2000
    3.0790   -0.5210    0.0000 S   0  0  0  0  0  0  0  0  0  0  0  0
    3.4920   -1.2350    0.0000 O   0  0  0  0  0  0  0  0  0  0  0  0
    2.6660    0.1940    0.0000 O   0  0  0  0  0  0  0  0  0  0  0  0
    6.7180   -1.5970    0.0000 N   0  0  0  0  0  0  0  0  0  0  0  0
    8.0380    1.4690    0.0000 N   0  0  0  0  0  0  0  0  0  0  0  0
    2.3640   -0.9330    0.0000 N   0  0  0  0  0  0  0  0  0  0  0  0
    6.7180   -0.2690    0.0000 C   0  0  0  0  0  0  0  0  0  0  0  0
    5.9370   -0.5210    0.0000 C   0  0  0  0  0  0  0  0  0  0  0  0
    6.9740    0.5150    0.0000 C   0  0  0  0  0  0  0  0  0  0  0  0
    5.9370   -1.3460    0.0000 C   0  0  0  0  0  0  0  0  0  0  0  0
    4.5080   -0.5210    0.0000 C   0  0  0  0  0  0  0  0  0  0  0  0
    7.7810    0.6850    0.0000 C   0  0  0  0  0  0  0  0  0  0  0  0
    5.2220   -0.1080    0.0000 C   0  0  0  0  0  0  0  0  0  0  0  0
    7.1990   -0.9330    0.0000 C   0  0  0  0  0  0  0  0  0  0  0  0
    3.7940   -0.1080    0.0000 C   0  0  0  0  0  0  0  0  0  0  0  0
    5.2220   -1.7580    0.0000 C   0  0  0  0  0  0  0  0  0  0  0  0
    4.5080   -1.3460    0.0000 C   0  0  0  0  0  0  0  0  0  0  0  0
    8.8450    1.6390    0.0000 C   0  0  0  0  0  0  0  0  0  0  0  0
    7.4860    2.0830    0.0000 C   0  0  0  0  0  0  0  0  0  0  0  0
    1.6500   -0.5210    0.0000 C   0  0  0  0  0  0  0  0  0  0  0  0
  1  2  2  0  0  0  0
  1  3  2  0  0  0  0
  1  6  1  0  0  0  0
  1 15  1  0  0  0  0
  4 10  1  0  0  0  0
  4 14  1  0  0  0  0
  5 12  1  0  0  0  0
  5 18  1  0  0  0  0
  5 19  1  0  0  0  0
  6 20  1  0  0  0  0
  7  8  1  0  0  0  0
  7  9  1  0  0  0  0
  7 14  2  0  0  0  0
  8 10  1  0  0  0  0
  8 13  2  0  0  0  0
  9 12  1  0  0  0  0
 10 16  2  0  0  0  0
 11 13  1  0  0  0  0
 11 15  1  0  0  0  0
 11 17  2  0  0  0  0
 16 17  1  0  0  0  0
M  END
>  <DATABASE_ID>
DB00669

>  <DATABASE_NAME>
drugbank

>  <SMILES>
S(=O)(=O)(NC)Cc1cc2c([nH]cc2CCN(C)C)cc1

>  <INCHI_IDENTIFIER>
InChI=1S/C14H21N3O2S/c1-15-20(18,19)10-11-4-5-14-13(8-11)12(9-16-14)6-7-17(2)3/h4-5,8-9,15-16H,6-7,10H2,1-3H3

>  <INCHI_KEY>
InChIKey=KQKPFRSPSRPDEB-UHFFFAOYSA-N

>  <JCHEM_ACCEPTOR_COUNT>
3

>  <JCHEM_AVERAGE_POLARIZABILITY>
32.30534

>  <JCHEM_BIOAVAILABILITY>
1

>  <JCHEM_DONOR_COUNT>
2

>  <JCHEM_EXACT_MASS>
295.13544

>  <JCHEM_FORMAL_CHARGE>
0

>  <JCHEM_FORMULA>
C14H21N3O2S

>  <JCHEM_GHOSE_FILTER>
1

>  <JCHEM_IUPAC>
1-{3-[2-(dimethylamino)ethyl]-1H-indol-5-yl}-N-methylmethanesulfonamide

>  <ALOGPS_LOGP>
1.17

>  <JCHEM_LOGP>
0.74192888

>  <ALOGPS_LOGS>
-3.3699999

>  <JCHEM_MASS>
295.39999

>  <JCHEM_MDDR_LIKE_RULE>
0

>  <JCHEM_NUMBER_OF_RINGS>
2

>  <JCHEM_PHYSIOLOGICAL_CHARGE>
1

>  <JCHEM_PKA>
17.140196

>  <JCHEM_PKA_STRONGEST_ACIDIC>
11.244988

>  <JCHEM_PKA_STRONGEST_BASIC>
9.5369883

>  <JCHEM_POLAR_SURFACE_AREA>
65.199997

>  <JCHEM_REFRACTIVITY>
82.084198

>  <JCHEM_ROTATABLE_BOND_COUNT>
5

>  <JCHEM_RULE_OF_FIVE>
1

>  <ALOGPS_SOLUBILITY>
1.27e-01 g/l

>  <JCHEM_TRADITIONAL_IUPAC>
sumatriptan

>  <JCHEM_VEBER_RULE>
0

>  <DRUGBANK_ID>
DB00669

>  <DRUG_GROUPS>
approved; investigational

>  <GENERIC_NAME>
Sumatriptan

>  <SYNONYMS>
Sumatriptan; Sumatriptán; Sumatriptanum

>  <BRANDS>
Adracon; ALSUMA; Altaxa; Apigrane; Boots Pharmacy Migraine Relief; Cinie; Frimig; Illument; Imigen; Imigran; Imigran mite; Imigran Radis; Imigrane; Imitrex; Imitrex Oral; Migralgin; Migraneitor; Nazdav; Sapphirex; Sumatran; Sumax; Suminat; Youshu; ZECUITY

>  <SALTS>
Sumatriptan Succinate

$$$$
Cefixime
 OpenBabel02121510022D

 31 33  0  0  1  0  0  0  0  0999 V2000
   12.2410   -9.9060    0.0000 S   0  0  0  0  0  0  0  0  0  0  0  0
   12.9550  -10.3180    0.0000 C   0  0  0  0  0  0  0  0  0  0  0  0
   12.9550  -11.1430    0.0000 C   0  0  0  0  0  0  0  0  0  0  0  0
   12.2410  -11.5560    0.0000 C   0  0  0  0  0  0  0  0  0  0  0  0
   11.5260  -10.3180    0.0000 C   0  0  1  0  0  0  0  0  0  0  0  0
   11.5260  -11.1430    0.0000 N   0  0  0  0  0  0  0  0  0  0  0  0
   10.7010  -11.1430    0.0000 C   0  0  0  0  0  0  0  0  0  0  0  0
   10.7010  -10.3180    0.0000 C   0  0  1  0  0  0  0  0  0  0  0  0
    9.9870  -11.5560    0.0000 O   0  0  0  0  0  0  0  0  0  0  0  0
   12.2410  -12.3810    0.0000 C   0  0  0  0  0  0  0  0  0  0  0  0
   12.9550  -12.7930    0.0000 O   0  0  0  0  0  0  0  0  0  0  0  0
   11.5260  -12.7930    0.0000 O   0  0  0  0  0  0  0  0  0  0  0  0
   13.6700  -11.5560    0.0000 C   0  0  0  0  0  0  0  0  0  0  0  0
   14.3840  -11.1430    0.0000 C   0  0  0  0  0  0  0  0  0  0  0  0
    9.9870   -9.9060    0.0000 N   0  0  0  0  0  0  0  0  0  0  0  0
    9.2720  -10.3180    0.0000 C   0  0  0  0  0  0  0  0  0  0  0  0
    8.5580   -9.9060    0.0000 C   0  0  0  0  0  0  0  0  0  0  0  0
    9.2720  -11.1430    0.0000 O   0  0  0  0  0  0  0  0  0  0  0  0
    7.8430  -10.3180    0.0000 C   0  0  0  0  0  0  0  0  0  0  0  0
    8.5580   -9.0810    0.0000 N   0  0  0  0  0  0  0  0  0  0  0  0
    9.2720   -8.6680    0.0000 O   0  0  0  0  0  0  0  0  0  0  0  0
    9.2720   -7.8430    0.0000 C   0  0  0  0  0  0  0  0  0  0  0  0
    9.9870   -7.4310    0.0000 C   0  0  0  0  0  0  0  0  0  0  0  0
   10.7010   -7.8430    0.0000 O   0  0  0  0  0  0  0  0  0  0  0  0
    9.9870   -6.6060    0.0000 O   0  0  0  0  0  0  0  0  0  0  0  0
    7.7570  -11.1390    0.0000 C   0  0  0  0  0  0  0  0  0  0  0  0
    6.9500  -11.3100    0.0000 S   0  0  0  0  0  0  0  0  0  0  0  0
    6.5380  -10.5960    0.0000 C   0  0  0  0  0  0  0  0  0  0  0  0
    7.0900   -9.9830    0.0000 N   0  0  0  0  0  0  0  0  0  0  0  0
    5.7170  -10.5100    0.0000 N   0  0  0  0  0  0  0  0  0  0  0  0
   11.5200   -9.6220    0.0000 H   0  0  0  0  0  0  0  0  0  0  0  0
  1  2  1  0  0  0  0
  1  5  1  0  0  0  0
  2  3  1  0  0  0  0
  3  4  2  0  0  0  0
  3 13  1  0  0  0  0
  4  6  1  0  0  0  0
  4 10  1  0  0  0  0
  5  6  1  0  0  0  0
  5  8  1  0  0  0  0
  5 31  1  6  0  0  0
  6  7  1  0  0  0  0
  7  8  1  0  0  0  0
  7  9  2  0  0  0  0
  8 15  1  1  0  0  0
 10 11  1  0  0  0  0
 10 12  2  0  0  0  0
 13 14  2  0  0  0  0
 15 16  1  0  0  0  0
 16 17  1  0  0  0  0
 16 18  2  0  0  0  0
 17 19  1  0  0  0  0
 17 20  2  0  0  0  0
 19 26  2  0  0  0  0
 19 29  1  0  0  0  0
 20 21  1  0  0  0  0
 21 22  1  0  0  0  0
 22 23  1  0  0  0  0
 23 24  1  0  0  0  0
 23 25  2  0  0  0  0
 26 27  1  0  0  0  0
 27 28  1  0  0  0  0
 28 29  2  0  0  0  0
 28 30  1  0  0  0  0
M  END
>  <DATABASE_ID>
DB00671

>  <DATABASE_NAME>
drugbank

>  <SMILES>
s1cc(nc1N)/C(=N/OCC(O)=O)/C(=O)N[C@H]1[C@H]2SCC(C=C)=C(N2C1=O)C(O)=O

>  <INCHI_IDENTIFIER>
InChI=1S/C16H15N5O7S2/c1-2-6-4-29-14-10(13(25)21(14)11(6)15(26)27)19-12(24)9(20-28-3-8(22)23)7-5-30-16(17)18-7/h2,5,10,14H,1,3-4H2,(H2,17,18)(H,19,24)(H,22,23)(H,26,27)/b20-9-/t10-,14-/m1/s1

>  <INCHI_KEY>
InChIKey=OKBVVJOGVLARMR-QSWIMTSFSA-N

>  <JCHEM_ACCEPTOR_COUNT>
10

>  <JCHEM_AVERAGE_POLARIZABILITY>
41.623013

>  <JCHEM_BIOAVAILABILITY>
1

>  <JCHEM_DONOR_COUNT>
4

>  <JCHEM_EXACT_MASS>
453.04129

>  <JCHEM_FORMAL_CHARGE>
0

>  <JCHEM_FORMULA>
C16H15N5O7S2

>  <JCHEM_GHOSE_FILTER>
0

>  <JCHEM_IUPAC>
(6R,7R)-7-[(2Z)-2-(2-amino-1,3-thiazol-4-yl)-2-[(carboxymethoxy)imino]acetamido]-3-ethenyl-8-oxo-5-thia-1-azabicyclo[4.2.0]oct-2-ene-2-carboxylic acid

>  <ALOGPS_LOGP>
0.25

>  <JCHEM_LOGP>
-1.1755333

>  <ALOGPS_LOGS>
-3.6400001

>  <JCHEM_MASS>
453.45001

>  <JCHEM_MDDR_LIKE_RULE>
1

>  <JCHEM_NUMBER_OF_RINGS>
3

>  <JCHEM_PHYSIOLOGICAL_CHARGE>
-2

>  <JCHEM_PKA>
3.2637255

>  <JCHEM_PKA_STRONGEST_ACIDIC>
3.4486887

>  <JCHEM_PKA_STRONGEST_BASIC>
2.9247038

>  <JCHEM_POLAR_SURFACE_AREA>
184.50999

>  <JCHEM_REFRACTIVITY>
104.9118

>  <JCHEM_ROTATABLE_BOND_COUNT>
8

>  <JCHEM_RULE_OF_FIVE>
1

>  <ALOGPS_SOLUBILITY>
1.04e-01 g/l

>  <JCHEM_TRADITIONAL_IUPAC>
cefixime

>  <JCHEM_VEBER_RULE>
0

>  <DRUGBANK_ID>
DB00671

>  <DRUG_GROUPS>
approved

>  <GENERIC_NAME>
Cefixime

>  <SYNONYMS>
Cefixim; Cefixima; Céfixime; Cefiximum

>  <BRANDS>
Cefixoral; Cefspan; Cephoral; Fixam; Fixspor; Hifen; InfectoOpticef; Kuracef; Letix; Ofex; Omnatax-O; Oracef; Oroken; Sancefix; Secef; Supran; Suprax; Suprax 125; Tricef; Unixime; Uro-Cephoral

$$$$
Chlorpropamide
 OpenBabel02121510022D

 17 17  0  0  0  0  0  0  0  0999 V2000
    2.4750   -3.5060    0.0000 Cl  0  0  0  0  0  0  0  0  0  0  0  0
    2.4750   -0.2060    0.0000 S   0  0  0  0  0  0  0  0  0  0  0  0
    1.6500   -0.2060    0.0000 O   0  0  0  0  0  0  0  0  0  0  0  0
    3.3000   -0.2060    0.0000 O   0  0  0  0  0  0  0  0  0  0  0  0
    3.9040    0.6190    0.0000 O   0  0  0  0  0  0  0  0  0  0  0  0
    2.4750    0.6190    0.0000 N   0  0  0  0  0  0  0  0  0  0  0  0
    3.1900    1.8560    0.0000 N   0  0  0  0  0  0  0  0  0  0  0  0
    3.9040    2.2690    0.0000 C   0  0  0  0  0  0  0  0  0  0  0  0
    2.4750   -1.0310    0.0000 C   0  0  0  0  0  0  0  0  0  0  0  0
    3.9040    3.0940    0.0000 C   0  0  0  0  0  0  0  0  0  0  0  0
    3.1900    1.0310    0.0000 C   0  0  0  0  0  0  0  0  0  0  0  0
    3.1900   -1.4440    0.0000 C   0  0  0  0  0  0  0  0  0  0  0  0
    1.7610   -1.4440    0.0000 C   0  0  0  0  0  0  0  0  0  0  0  0
    4.6180    3.5060    0.0000 C   0  0  0  0  0  0  0  0  0  0  0  0
    3.1900   -2.2690    0.0000 C   0  0  0  0  0  0  0  0  0  0  0  0
    1.7610   -2.2690    0.0000 C   0  0  0  0  0  0  0  0  0  0  0  0
    2.4750   -2.6810    0.0000 C   0  0  0  0  0  0  0  0  0  0  0  0
  1 17  1  0  0  0  0
  2  3  2  0  0  0  0
  2  4  2  0  0  0  0
  2  6  1  0  0  0  0
  2  9  1  0  0  0  0
  5 11  2  0  0  0  0
  6 11  1  0  0  0  0
  7  8  1  0  0  0  0
  7 11  1  0  0  0  0
  8 10  1  0  0  0  0
  9 12  2  0  0  0  0
  9 13  1  0  0  0  0
 10 14  1  0  0  0  0
 12 15  1  0  0  0  0
 13 16  2  0  0  0  0
 15 17  2  0  0  0  0
 16 17  1  0  0  0  0
M  END
>  <DATABASE_ID>
DB00672

>  <DATABASE_NAME>
drugbank

>  <SMILES>
Clc1ccc(S(=O)(=O)NC(=O)NCCC)cc1

>  <INCHI_IDENTIFIER>
InChI=1S/C10H13ClN2O3S/c1-2-7-12-10(14)13-17(15,16)9-5-3-8(11)4-6-9/h3-6H,2,7H2,1H3,(H2,12,13,14)

>  <INCHI_KEY>
InChIKey=RKWGIWYCVPQPMF-UHFFFAOYSA-N

>  <JCHEM_ACCEPTOR_COUNT>
3

>  <JCHEM_AVERAGE_POLARIZABILITY>
27.057009

>  <JCHEM_BIOAVAILABILITY>
1

>  <JCHEM_DONOR_COUNT>
2

>  <JCHEM_EXACT_MASS>
276.03354

>  <JCHEM_FORMAL_CHARGE>
0

>  <JCHEM_FORMULA>
C10H13ClN2O3S

>  <JCHEM_GHOSE_FILTER>
1

>  <JCHEM_IUPAC>
1-[(4-chlorobenzene)sulfonyl]-3-propylurea

>  <ALOGPS_LOGP>
2.1500001

>  <JCHEM_LOGP>
1.9413904

>  <ALOGPS_LOGS>
-3.25

>  <JCHEM_MASS>
276.73999

>  <JCHEM_MDDR_LIKE_RULE>
0

>  <JCHEM_NUMBER_OF_RINGS>
1

>  <JCHEM_PHYSIOLOGICAL_CHARGE>
-1

>  <JCHEM_PKA>
17.070932

>  <JCHEM_PKA_STRONGEST_ACIDIC>
4.3291669

>  <JCHEM_POLAR_SURFACE_AREA>
75.269997

>  <JCHEM_REFRACTIVITY>
65.432602

>  <JCHEM_ROTATABLE_BOND_COUNT>
3

>  <JCHEM_RULE_OF_FIVE>
1

>  <ALOGPS_SOLUBILITY>
1.57e-01 g/l

>  <JCHEM_TRADITIONAL_IUPAC>
1-(4-chlorobenzenesulfonyl)-3-propylurea

>  <JCHEM_VEBER_RULE>
0

>  <DRUGBANK_ID>
DB00672

>  <DRUG_GROUPS>
approved

>  <GENERIC_NAME>
Chlorpropamide

>  <SYNONYMS>
Chlorpropamid; Chlorpropamide; Chlorpropamidum; Clorpropamida

>  <BRANDS>
Abemide; Chloronase; Chlorpropamide; Dabinese; Diabeedol; Diabemide; Diabezin; Diabinese; Diabitex; Dibecon; Glycemin; Hypomide; Litangen; Propamide; Trane

$$$$
Aprepitant
 OpenBabel02121510022D

 37 40  0  0  1  0  0  0  0  0999 V2000
   10.3960   -4.5690    0.0000 C   0  0  1  0  0  0  0  0  0  0  0  0
   10.3960   -5.3800    0.0000 C   0  0  1  0  0  0  0  0  0  0  0  0
   11.8100   -2.9400    0.0000 C   0  0  0  0  0  0  0  0  0  0  0  0
   12.5240   -3.3520    0.0000 C   0  0  0  0  0  0  0  0  0  0  0  0
   13.2390   -2.9400    0.0000 C   0  0  0  0  0  0  0  0  0  0  0  0
   13.2390   -2.1150    0.0000 C   0  0  0  0  0  0  0  0  0  0  0  0
   12.5250   -1.7020    0.0000 C   0  0  0  0  0  0  0  0  0  0  0  0
   11.8100   -2.1150    0.0000 C   0  0  0  0  0  0  0  0  0  0  0  0
   12.5250   -0.8640    0.0000 C   0  0  0  0  0  0  0  0  0  0  0  0
   13.9530   -3.3530    0.0000 C   0  0  0  0  0  0  0  0  0  0  0  0
   14.6680   -3.7650    0.0000 F   0  0  0  0  0  0  0  0  0  0  0  0
   12.5250   -0.0400    0.0000 F   0  0  0  0  0  0  0  0  0  0  0  0
   11.0960   -3.3520    0.0000 C   0  0  2  0  0  0  0  0  0  0  0  0
   11.0950   -4.1650    0.0000 O   0  0  0  0  0  0  0  0  0  0  0  0
   10.3810   -2.9390    0.0000 C   0  0  0  0  0  0  0  0  0  0  0  0
    9.6810   -4.1570    0.0000 O   0  0  0  0  0  0  0  0  0  0  0  0
    8.9670   -4.5690    0.0000 C   0  0  0  0  0  0  0  0  0  0  0  0
    8.9670   -5.3800    0.0000 C   0  0  0  0  0  0  0  0  0  0  0  0
    9.6810   -5.7920    0.0000 N   0  0  0  0  0  0  0  0  0  0  0  0
   11.1130   -5.7950    0.0000 C   0  0  0  0  0  0  0  0  0  0  0  0
   11.1130   -6.6060    0.0000 C   0  0  0  0  0  0  0  0  0  0  0  0
   11.8280   -7.0190    0.0000 C   0  0  0  0  0  0  0  0  0  0  0  0
   12.5420   -6.6060    0.0000 C   0  0  0  0  0  0  0  0  0  0  0  0
   12.5420   -5.7950    0.0000 C   0  0  0  0  0  0  0  0  0  0  0  0
   11.8280   -5.3820    0.0000 C   0  0  0  0  0  0  0  0  0  0  0  0
   13.2630   -7.0220    0.0000 F   0  0  0  0  0  0  0  0  0  0  0  0
    9.6780   -6.6300    0.0000 C   0  0  0  0  0  0  0  0  0  0  0  0
    8.9640   -7.0420    0.0000 C   0  0  0  0  0  0  0  0  0  0  0  0
    8.2370   -6.6230    0.0000 N   0  0  0  0  0  0  0  0  0  0  0  0
    7.6140   -7.1840    0.0000 C   0  0  0  0  0  0  0  0  0  0  0  0
    7.9550   -7.9500    0.0000 N   0  0  0  0  0  0  0  0  0  0  0  0
    8.7890   -7.8620    0.0000 N   0  0  0  0  0  0  0  0  0  0  0  0
    6.8140   -7.0140    0.0000 O   0  0  0  0  0  0  0  0  0  0  0  0
   13.9530   -4.1780    0.0000 F   0  0  0  0  0  0  0  0  0  0  0  0
   14.6680   -2.9400    0.0000 F   0  0  0  0  0  0  0  0  0  0  0  0
   11.8110   -0.4520    0.0000 F   0  0  0  0  0  0  0  0  0  0  0  0
   13.2400   -0.4520    0.0000 F   0  0  0  0  0  0  0  0  0  0  0  0
  1  2  1  0  0  0  0
  1 14  1  6  0  0  0
  1 16  1  0  0  0  0
  2 19  1  0  0  0  0
  2 20  1  6  0  0  0
  3  4  2  0  0  0  0
  3  8  1  0  0  0  0
  4  5  1  0  0  0  0
  5  6  2  0  0  0  0
  5 10  1  0  0  0  0
  6  7  1  0  0  0  0
  7  8  2  0  0  0  0
  7  9  1  0  0  0  0
  9 12  1  0  0  0  0
  9 36  1  0  0  0  0
  9 37  1  0  0  0  0
 10 11  1  0  0  0  0
 10 34  1  0  0  0  0
 10 35  1  0  0  0  0
 13  3  1  6  0  0  0
 13 14  1  0  0  0  0
 13 15  1  0  0  0  0
 16 17  1  0  0  0  0
 17 18  1  0  0  0  0
 18 19  1  0  0  0  0
 19 27  1  0  0  0  0
 20 21  1  0  0  0  0
 20 25  2  0  0  0  0
 21 22  2  0  0  0  0
 22 23  1  0  0  0  0
 23 24  2  0  0  0  0
 23 26  1  0  0  0  0
 24 25  1  0  0  0  0
 27 28  1  0  0  0  0
 28 29  1  0  0  0  0
 28 32  2  0  0  0  0
 29 30  1  0  0  0  0
 30 31  1  0  0  0  0
 30 33  2  0  0  0  0
 31 32  1  0  0  0  0
M  END
>  <DATABASE_ID>
DB00673

>  <DATABASE_NAME>
drugbank

>  <SMILES>
Fc1ccc(cc1)[C@@H]1N(CCO[C@@H]1O[C@H](C)c1cc(cc(c1)C(F)(F)F)C(F)(F)F)CC=1NC(=O)NN=1

>  <INCHI_IDENTIFIER>
InChI=1S/C23H21F7N4O3/c1-12(14-8-15(22(25,26)27)10-16(9-14)23(28,29)30)37-20-19(13-2-4-17(24)5-3-13)34(6-7-36-20)11-18-31-21(35)33-32-18/h2-5,8-10,12,19-20H,6-7,11H2,1H3,(H2,31,32,33,35)/t12-,19+,20-/m1/s1

>  <INCHI_KEY>
InChIKey=ATALOFNDEOCMKK-OITMNORJSA-N

>  <JCHEM_ACCEPTOR_COUNT>
5

>  <JCHEM_AVERAGE_POLARIZABILITY>
45.561249

>  <JCHEM_BIOAVAILABILITY>
0

>  <JCHEM_DONOR_COUNT>
2

>  <JCHEM_EXACT_MASS>
534.15021

>  <JCHEM_FORMAL_CHARGE>
0

>  <JCHEM_FORMULA>
C23H21F7N4O3

>  <JCHEM_GHOSE_FILTER>
0

>  <JCHEM_IUPAC>
3-{[(2R,3S)-2-[(1R)-1-[3,5-bis(trifluoromethyl)phenyl]ethoxy]-3-(4-fluorophenyl)morpholin-4-yl]methyl}-4,5-dihydro-1H-1,2,4-triazol-5-one

>  <ALOGPS_LOGP>
2.4400001

>  <JCHEM_LOGP>
5.2157292

>  <ALOGPS_LOGS>
-4.4400001

>  <JCHEM_MASS>
534.4267

>  <JCHEM_MDDR_LIKE_RULE>
1

>  <JCHEM_NUMBER_OF_RINGS>
4

>  <JCHEM_PHYSIOLOGICAL_CHARGE>
0

>  <JCHEM_PKA>
15.160555

>  <JCHEM_PKA_STRONGEST_ACIDIC>
9.6465931

>  <JCHEM_PKA_STRONGEST_BASIC>
3.5126023

>  <JCHEM_POLAR_SURFACE_AREA>
75.190002

>  <JCHEM_REFRACTIVITY>
116.9282

>  <JCHEM_ROTATABLE_BOND_COUNT>
8

>  <JCHEM_RULE_OF_FIVE>
0

>  <ALOGPS_SOLUBILITY>
1.94e-02 g/l

>  <JCHEM_TRADITIONAL_IUPAC>
aprepitant

>  <JCHEM_VEBER_RULE>
0

>  <DRUGBANK_ID>
DB00673

>  <DRUG_GROUPS>
approved; investigational

>  <GENERIC_NAME>
Aprepitant

>  <SYNONYMS>
Aprepitant; Aprépitant; Aprepitantum

>  <BRANDS>
Aprecap; Emend

$$$$
Galantamine
 OpenBabel02121510022D

 22 25  0  0  1  0  0  0  0  0999 V2000
    4.2100   -1.4420    0.0000 O   0  0  0  0  0  0  0  0  0  0  0  0
    7.3590   -1.5570    0.0000 O   0  0  0  0  0  0  0  0  0  0  0  0
    2.4430   -1.0640    0.0000 O   0  0  0  0  0  0  0  0  0  0  0  0
    5.5410    1.3240    0.0000 N   0  0  0  0  0  0  0  0  0  0  0  0
    5.1290   -0.4830    0.0000 C   0  0  1  0  0  0  0  0  0  0  0  0
    5.8100   -0.0190    0.0000 C   0  0  2  0  0  0  0  0  0  0  0  0
    4.3860   -0.1250    0.0000 C   0  0  0  0  0  0  0  0  0  0  0  0
    5.8720   -0.1250    0.0000 C   0  0  0  0  0  0  0  0  0  0  0  0
    6.5540   -0.3760    0.0000 C   0  0  0  0  0  0  0  0  0  0  0  0
    5.1900   -1.3060    0.0000 C   0  0  0  0  0  0  0  0  0  0  0  0
    3.8200   -0.7200    0.0000 C   0  0  0  0  0  0  0  0  0  0  0  0
    6.0560    0.6790    0.0000 C   0  0  0  0  0  0  0  0  0  0  0  0
    4.2020    0.6790    0.0000 C   0  0  0  0  0  0  0  0  0  0  0  0
    6.6160   -1.1990    0.0000 C   0  0  2  0  0  0  0  0  0  0  0  0
    4.7160    1.3240    0.0000 C   0  0  0  0  0  0  0  0  0  0  0  0
    5.9340   -1.6640    0.0000 C   0  0  0  0  0  0  0  0  0  0  0  0
    3.0360   -0.4900    0.0000 C   0  0  0  0  0  0  0  0  0  0  0  0
    3.4100    0.8790    0.0000 C   0  0  0  0  0  0  0  0  0  0  0  0
    2.8340    0.3010    0.0000 C   0  0  0  0  0  0  0  0  0  0  0  0
    5.8990    2.0670    0.0000 C   0  0  0  0  0  0  0  0  0  0  0  0
    1.6500   -0.8370    0.0000 C   0  0  0  0  0  0  0  0  0  0  0  0
    5.7610    0.6400    0.0000 H   0  0  0  0  0  0  0  0  0  0  0  0
  1  6  1  0  0  0  0
  1 11  1  0  0  0  0
  3 17  1  0  0  0  0
  3 21  1  0  0  0  0
  4 12  1  0  0  0  0
  4 15  1  0  0  0  0
  4 20  1  0  0  0  0
  5  6  1  0  0  0  0
  5  7  1  6  0  0  0
  5  8  1  0  0  0  0
  5 10  1  0  0  0  0
  6  9  1  0  0  0  0
  6 22  1  1  0  0  0
  7 11  2  0  0  0  0
  7 13  1  0  0  0  0
  8 12  1  0  0  0  0
  9 14  1  0  0  0  0
 10 16  2  0  0  0  0
 11 17  1  0  0  0  0
 13 15  1  0  0  0  0
 13 18  2  0  0  0  0
 14  2  1  1  0  0  0
 14 16  1  0  0  0  0
 17 19  2  0  0  0  0
 18 19  1  0  0  0  0
M  END
>  <DATABASE_ID>
DB00674

>  <DATABASE_NAME>
drugbank

>  <SMILES>
O1[C@@H]2[C@@]3(CCN(Cc4c3c1c(OC)cc4)C)C=C[C@H](O)C2

>  <INCHI_IDENTIFIER>
InChI=1S/C17H21NO3/c1-18-8-7-17-6-5-12(19)9-14(17)21-16-13(20-2)4-3-11(10-18)15(16)17/h3-6,12,14,19H,7-10H2,1-2H3/t12-,14-,17-/m0/s1

>  <INCHI_KEY>
InChIKey=ASUTZQLVASHGKV-JDFRZJQESA-N

>  <JCHEM_ACCEPTOR_COUNT>
4

>  <JCHEM_AVERAGE_POLARIZABILITY>
31.402296

>  <JCHEM_BIOAVAILABILITY>
1

>  <JCHEM_DONOR_COUNT>
1

>  <JCHEM_EXACT_MASS>
287.15213

>  <JCHEM_FORMAL_CHARGE>
0

>  <JCHEM_FORMULA>
C17H21NO3

>  <JCHEM_GHOSE_FILTER>
1

>  <JCHEM_IUPAC>
(1S,12S,14R)-9-methoxy-4-methyl-11-oxa-4-azatetracyclo[8.6.1.0^{1,12}.0^{6,17}]heptadeca-6,8,10(17),15-tetraen-14-ol

>  <ALOGPS_LOGP>
1.39

>  <JCHEM_LOGP>
1.1630428

>  <ALOGPS_LOGS>
-2.23

>  <JCHEM_MASS>
287.35349

>  <JCHEM_MDDR_LIKE_RULE>
0

>  <JCHEM_NUMBER_OF_RINGS>
4

>  <JCHEM_PHYSIOLOGICAL_CHARGE>
1

>  <JCHEM_PKA_STRONGEST_ACIDIC>
14.810377

>  <JCHEM_PKA_STRONGEST_BASIC>
8.9095173

>  <JCHEM_POLAR_SURFACE_AREA>
41.93

>  <JCHEM_REFRACTIVITY>
82.304901

>  <JCHEM_ROTATABLE_BOND_COUNT>
1

>  <JCHEM_RULE_OF_FIVE>
1

>  <ALOGPS_SOLUBILITY>
1.70e+00 g/l

>  <JCHEM_TRADITIONAL_IUPAC>
galantamine

>  <JCHEM_VEBER_RULE>
0

>  <DRUGBANK_ID>
DB00674

>  <DRUG_GROUPS>
approved

>  <GENERIC_NAME>
Galantamine

>  <SYNONYMS>
(-)-Galanthamine; Galanthamine

>  <BRANDS>
Lycoremine; Nivalin; Razadyne; Reminyl

>  <SALTS>
Galantamine hydrobromide

$$$$
Tamoxifen
 OpenBabel02121510022D

 28 30  0  0  0  0  0  0  0  0999 V2000
    4.5080   -1.2380    0.0000 O   0  0  0  0  0  0  0  0  0  0  0  0
    3.0790   -2.8880    0.0000 N   0  0  0  0  0  0  0  0  0  0  0  0
    4.5080    2.0620    0.0000 C   0  0  0  0  0  0  0  0  0  0  0  0
    3.7940    2.4750    0.0000 C   0  0  0  0  0  0  0  0  0  0  0  0
    4.5080    1.2380    0.0000 C   0  0  0  0  0  0  0  0  0  0  0  0
    3.7940    3.3000    0.0000 C   0  0  0  0  0  0  0  0  0  0  0  0
    5.2220    2.4750    0.0000 C   0  0  0  0  0  0  0  0  0  0  0  0
    3.0790    2.0620    0.0000 C   0  0  0  0  0  0  0  0  0  0  0  0
    5.2220    0.8250    0.0000 C   0  0  0  0  0  0  0  0  0  0  0  0
    3.7940    0.8250    0.0000 C   0  0  0  0  0  0  0  0  0  0  0  0
    3.0790    3.7130    0.0000 C   0  0  0  0  0  0  0  0  0  0  0  0
    4.5080   -0.4120    0.0000 C   0  0  0  0  0  0  0  0  0  0  0  0
    5.2220    0.0000    0.0000 C   0  0  0  0  0  0  0  0  0  0  0  0
    3.7940    0.0000    0.0000 C   0  0  0  0  0  0  0  0  0  0  0  0
    5.2220    3.3000    0.0000 C   0  0  0  0  0  0  0  0  0  0  0  0
    5.9370    2.0620    0.0000 C   0  0  0  0  0  0  0  0  0  0  0  0
    3.0790    1.2380    0.0000 C   0  0  0  0  0  0  0  0  0  0  0  0
    2.3640    2.4750    0.0000 C   0  0  0  0  0  0  0  0  0  0  0  0
    3.7940   -2.4750    0.0000 C   0  0  0  0  0  0  0  0  0  0  0  0
    3.7940   -1.6500    0.0000 C   0  0  0  0  0  0  0  0  0  0  0  0
    5.9370    3.7130    0.0000 C   0  0  0  0  0  0  0  0  0  0  0  0
    6.6520    2.4750    0.0000 C   0  0  0  0  0  0  0  0  0  0  0  0
    2.3640    0.8250    0.0000 C   0  0  0  0  0  0  0  0  0  0  0  0
    1.6500    2.0620    0.0000 C   0  0  0  0  0  0  0  0  0  0  0  0
    6.6520    3.3000    0.0000 C   0  0  0  0  0  0  0  0  0  0  0  0
    1.6500    1.2380    0.0000 C   0  0  0  0  0  0  0  0  0  0  0  0
    3.0790   -3.7130    0.0000 C   0  0  0  0  0  0  0  0  0  0  0  0
    2.3640   -2.4750    0.0000 C   0  0  0  0  0  0  0  0  0  0  0  0
  1 12  1  0  0  0  0
  1 20  1  0  0  0  0
  2 19  1  0  0  0  0
  2 27  1  0  0  0  0
  2 28  1  0  0  0  0
  3  4  2  0  0  0  0
  3  5  1  0  0  0  0
  3  7  1  0  0  0  0
  4  6  1  0  0  0  0
  4  8  1  0  0  0  0
  5  9  2  0  0  0  0
  5 10  1  0  0  0  0
  6 11  1  0  0  0  0
  7 15  2  0  0  0  0
  7 16  1  0  0  0  0
  8 17  2  0  0  0  0
  8 18  1  0  0  0  0
  9 13  1  0  0  0  0
 10 14  2  0  0  0  0
 12 13  2  0  0  0  0
 12 14  1  0  0  0  0
 15 21  1  0  0  0  0
 16 22  2  0  0  0  0
 17 23  1  0  0  0  0
 18 24  2  0  0  0  0
 19 20  1  0  0  0  0
 21 25  2  0  0  0  0
 22 25  1  0  0  0  0
 23 26  2  0  0  0  0
 24 26  1  0  0  0  0
M  END
>  <DATABASE_ID>
DB00675

>  <DATABASE_NAME>
drugbank

>  <SMILES>
O(CCN(C)C)c1ccc(cc1)\C(=C(\CC)/c1ccccc1)\c1ccccc1

>  <INCHI_IDENTIFIER>
InChI=1S/C26H29NO/c1-4-25(21-11-7-5-8-12-21)26(22-13-9-6-10-14-22)23-15-17-24(18-16-23)28-20-19-27(2)3/h5-18H,4,19-20H2,1-3H3/b26-25-

>  <INCHI_KEY>
InChIKey=NKANXQFJJICGDU-QPLCGJKRSA-N

>  <JCHEM_ACCEPTOR_COUNT>
2

>  <JCHEM_AVERAGE_POLARIZABILITY>
44.193153

>  <JCHEM_BIOAVAILABILITY>
1

>  <JCHEM_DONOR_COUNT>
0

>  <JCHEM_EXACT_MASS>
371.22491

>  <JCHEM_FORMAL_CHARGE>
0

>  <JCHEM_FORMULA>
C26H29NO

>  <JCHEM_GHOSE_FILTER>
0

>  <JCHEM_IUPAC>
(2-{4-[(1Z)-1,2-diphenylbut-1-en-1-yl]phenoxy}ethyl)dimethylamine

>  <ALOGPS_LOGP>
5.9299998

>  <JCHEM_LOGP>
6.351222

>  <ALOGPS_LOGS>
-5.5599999

>  <JCHEM_MASS>
371.51459

>  <JCHEM_MDDR_LIKE_RULE>
1

>  <JCHEM_NUMBER_OF_RINGS>
3

>  <JCHEM_PHYSIOLOGICAL_CHARGE>
1

>  <JCHEM_PKA_STRONGEST_BASIC>
8.7643652

>  <JCHEM_POLAR_SURFACE_AREA>
12.47

>  <JCHEM_REFRACTIVITY>
128.4308

>  <JCHEM_ROTATABLE_BOND_COUNT>
8

>  <JCHEM_RULE_OF_FIVE>
0

>  <ALOGPS_SOLUBILITY>
1.02e-03 g/l

>  <JCHEM_TRADITIONAL_IUPAC>
tamoxifen

>  <JCHEM_VEBER_RULE>
1

>  <DRUGBANK_ID>
DB00675

>  <DRUG_GROUPS>
approved

>  <GENERIC_NAME>
Tamoxifen

>  <SYNONYMS>
Tamoxifen; Tamoxifène; Tamoxifene; Tamoxifeno; Tamoxifenum

>  <BRANDS>
Adifen; Adopan; Bilem; Caditam; Citofen; Crisafeno; Doctamoxifene; Ebefen; Fenahex; Genox; Gynatam; Istubal; Mammonex; Neophedan; Noltam; Nolvadex; Nolvadex-D; Novofen; Oncomox; PMS-Tamoxifen; Soltamox; Tadex; Tamifen; Tamizam; Tamofen; Tamoneprin; Tamoplex; Tamoxen; Tamoxilon; Tamtero; Tecnotax; Tomifen; Valodex; Zemide

>  <SALTS>
Tamoxifen Citrate

$$$$
Losartan
 OpenBabel02121510022D

 30 33  0  0  0  0  0  0  0  0999 V2000
    3.0870   -1.7150    0.0000 Cl  0  0  0  0  0  0  0  0  0  0  0  0
    4.6710   -2.1480    0.0000 O   0  0  0  0  0  0  0  0  0  0  0  0
    4.3160    0.0310    0.0000 N   0  0  0  0  0  0  0  0  0  0  0  0
    3.0100   -0.2460    0.0000 N   0  0  0  0  0  0  0  0  0  0  0  0
    7.9360    0.5160    0.0000 N   0  0  0  0  0  0  0  0  0  0  0  0
    9.2700    0.5160    0.0000 N   0  0  0  0  0  0  0  0  0  0  0  0
    8.1900    1.3010    0.0000 N   0  0  0  0  0  0  0  0  0  0  0  0
    9.0160    1.3010    0.0000 N   0  0  0  0  0  0  0  0  0  0  0  0
    3.5620    0.3670    0.0000 C   0  0  0  0  0  0  0  0  0  0  0  0
    3.3910    1.1740    0.0000 C   0  0  0  0  0  0  0  0  0  0  0  0
    5.0300    0.4440    0.0000 C   0  0  0  0  0  0  0  0  0  0  0  0
    2.6060    1.4290    0.0000 C   0  0  0  0  0  0  0  0  0  0  0  0
    4.2300   -0.7890    0.0000 C   0  0  0  0  0  0  0  0  0  0  0  0
    5.7450    0.0310    0.0000 C   0  0  0  0  0  0  0  0  0  0  0  0
    2.4350    2.2360    0.0000 C   0  0  0  0  0  0  0  0  0  0  0  0
    3.4230   -0.9610    0.0000 C   0  0  0  0  0  0  0  0  0  0  0  0
    4.8430   -1.3410    0.0000 C   0  0  0  0  0  0  0  0  0  0  0  0
    5.7450   -0.7940    0.0000 C   0  0  0  0  0  0  0  0  0  0  0  0
    6.4600    0.4440    0.0000 C   0  0  0  0  0  0  0  0  0  0  0  0
    7.1740   -0.7940    0.0000 C   0  0  0  0  0  0  0  0  0  0  0  0
    6.4600   -1.2060    0.0000 C   0  0  0  0  0  0  0  0  0  0  0  0
    7.1740    0.0310    0.0000 C   0  0  0  0  0  0  0  0  0  0  0  0
    1.6500    2.4910    0.0000 C   0  0  0  0  0  0  0  0  0  0  0  0
    7.8880   -1.2060    0.0000 C   0  0  0  0  0  0  0  0  0  0  0  0
    8.6030   -0.7940    0.0000 C   0  0  0  0  0  0  0  0  0  0  0  0
    7.8880   -2.0310    0.0000 C   0  0  0  0  0  0  0  0  0  0  0  0
    9.3180   -1.2060    0.0000 C   0  0  0  0  0  0  0  0  0  0  0  0
    8.6030   -2.4440    0.0000 C   0  0  0  0  0  0  0  0  0  0  0  0
    8.6030    0.0310    0.0000 C   0  0  0  0  0  0  0  0  0  0  0  0
    9.3180   -2.0310    0.0000 C   0  0  0  0  0  0  0  0  0  0  0  0
  1 16  1  0  0  0  0
  2 17  1  0  0  0  0
  3  9  1  0  0  0  0
  3 11  1  0  0  0  0
  3 13  1  0  0  0  0
  4  9  2  0  0  0  0
  4 16  1  0  0  0  0
  5  7  1  0  0  0  0
  5 29  2  0  0  0  0
  6  8  2  0  0  0  0
  6 29  1  0  0  0  0
  7  8  1  0  0  0  0
  9 10  1  0  0  0  0
 10 12  1  0  0  0  0
 11 14  1  0  0  0  0
 12 15  1  0  0  0  0
 13 16  2  0  0  0  0
 13 17  1  0  0  0  0
 14 18  2  0  0  0  0
 14 19  1  0  0  0  0
 15 23  1  0  0  0  0
 18 21  1  0  0  0  0
 19 22  2  0  0  0  0
 20 21  2  0  0  0  0
 20 22  1  0  0  0  0
 20 24  1  0  0  0  0
 24 25  2  0  0  0  0
 24 26  1  0  0  0  0
 25 27  1  0  0  0  0
 25 29  1  0  0  0  0
 26 28  2  0  0  0  0
 27 30  2  0  0  0  0
 28 30  1  0  0  0  0
M  END
>  <DATABASE_ID>
DB00678

>  <DATABASE_NAME>
drugbank

>  <SMILES>
Clc1nc(n(Cc2ccc(cc2)-c2ccccc2-c2nn[nH]n2)c1CO)CCCC

>  <INCHI_IDENTIFIER>
InChI=1S/C22H23ClN6O/c1-2-3-8-20-24-21(23)19(14-30)29(20)13-15-9-11-16(12-10-15)17-6-4-5-7-18(17)22-25-27-28-26-22/h4-7,9-12,30H,2-3,8,13-14H2,1H3,(H,25,26,27,28)

>  <INCHI_KEY>
InChIKey=PSIFNNKUMBGKDQ-UHFFFAOYSA-N

>  <JCHEM_ACCEPTOR_COUNT>
5

>  <JCHEM_AVERAGE_POLARIZABILITY>
44.860916

>  <JCHEM_BIOAVAILABILITY>
1

>  <JCHEM_DONOR_COUNT>
2

>  <JCHEM_EXACT_MASS>
422.1622

>  <JCHEM_FORMAL_CHARGE>
0

>  <JCHEM_FORMULA>
C22H23ClN6O

>  <JCHEM_GHOSE_FILTER>
0

>  <JCHEM_IUPAC>
[2-butyl-4-chloro-1-({4-[2-(2H-1,2,3,4-tetrazol-5-yl)phenyl]phenyl}methyl)-1H-imidazol-5-yl]methanol

>  <ALOGPS_LOGP>
4.5

>  <JCHEM_LOGP>
5.0849071

>  <ALOGPS_LOGS>
-4.9499998

>  <JCHEM_MASS>
422.91101

>  <JCHEM_MDDR_LIKE_RULE>
1

>  <JCHEM_NUMBER_OF_RINGS>
4

>  <JCHEM_PHYSIOLOGICAL_CHARGE>
0

>  <JCHEM_PKA>
14.273295

>  <JCHEM_PKA_STRONGEST_ACIDIC>
7.3997722

>  <JCHEM_PKA_STRONGEST_BASIC>
4.1220627

>  <JCHEM_POLAR_SURFACE_AREA>
92.510002

>  <JCHEM_REFRACTIVITY>
131.84959

>  <JCHEM_ROTATABLE_BOND_COUNT>
8

>  <JCHEM_RULE_OF_FIVE>
0

>  <ALOGPS_SOLUBILITY>
4.70e-03 g/l

>  <JCHEM_TRADITIONAL_IUPAC>
losartan

>  <JCHEM_VEBER_RULE>
0

>  <DRUGBANK_ID>
DB00678

>  <DRUG_GROUPS>
approved

>  <GENERIC_NAME>
Losartan

>  <SYNONYMS>
DuP 89

>  <BRANDS>
Cozaar; Hyzaar; Lortaan

>  <SALTS>
Losartan Potassium

$$$$
Thioridazine
 OpenBabel02121510022D

 25 28  0  0  1  0  0  0  0  0999 V2000
    3.8500   -2.6670    0.0000 S   0  0  0  0  0  0  0  0  0  0  0  0
    6.7620   -0.9970    0.0000 S   0  0  0  0  0  0  0  0  0  0  0  0
    2.4210    1.4580    0.0000 N   0  0  0  0  0  0  0  0  0  0  0  0
    3.8500   -1.0170    0.0000 N   0  0  0  0  0  0  0  0  0  0  0  0
    3.1350    1.0460    0.0000 C   0  0  3  0  0  0  0  0  0  0  0  0
    3.8500    1.4580    0.0000 C   0  0  0  0  0  0  0  0  0  0  0  0
    3.1350    0.2200    0.0000 C   0  0  0  0  0  0  0  0  0  0  0  0
    3.8500    2.2830    0.0000 C   0  0  0  0  0  0  0  0  0  0  0  0
    2.4210    2.2830    0.0000 C   0  0  0  0  0  0  0  0  0  0  0  0
    3.1350    2.6960    0.0000 C   0  0  0  0  0  0  0  0  0  0  0  0
    3.8500   -0.1920    0.0000 C   0  0  0  0  0  0  0  0  0  0  0  0
    1.7060    1.0460    0.0000 C   0  0  0  0  0  0  0  0  0  0  0  0
    4.5640   -1.4300    0.0000 C   0  0  0  0  0  0  0  0  0  0  0  0
    3.1350   -1.4300    0.0000 C   0  0  0  0  0  0  0  0  0  0  0  0
    4.5640   -2.2540    0.0000 C   0  0  0  0  0  0  0  0  0  0  0  0
    3.1350   -2.2540    0.0000 C   0  0  0  0  0  0  0  0  0  0  0  0
    5.3020   -0.9880    0.0000 C   0  0  0  0  0  0  0  0  0  0  0  0
    2.3980   -0.9880    0.0000 C   0  0  0  0  0  0  0  0  0  0  0  0
    5.3020   -2.6960    0.0000 C   0  0  0  0  0  0  0  0  0  0  0  0
    2.3980   -2.6960    0.0000 C   0  0  0  0  0  0  0  0  0  0  0  0
    6.0490   -1.4120    0.0000 C   0  0  0  0  0  0  0  0  0  0  0  0
    1.6500   -1.4120    0.0000 C   0  0  0  0  0  0  0  0  0  0  0  0
    6.0490   -2.2720    0.0000 C   0  0  0  0  0  0  0  0  0  0  0  0
    1.6500   -2.2720    0.0000 C   0  0  0  0  0  0  0  0  0  0  0  0
    7.4780   -1.4070    0.0000 C   0  0  0  0  0  0  0  0  0  0  0  0
  1 15  1  0  0  0  0
  1 16  1  0  0  0  0
  2 21  1  0  0  0  0
  2 25  1  0  0  0  0
  3  5  1  0  0  0  0
  3  9  1  0  0  0  0
  3 12  1  0  0  0  0
  4 11  1  0  0  0  0
  4 13  1  0  0  0  0
  4 14  1  0  0  0  0
  5  6  1  0  0  0  0
  5  7  1  0  0  0  0
  6  8  1  0  0  0  0
  7 11  1  0  0  0  0
  8 10  1  0  0  0  0
  9 10  1  0  0  0  0
 13 15  2  0  0  0  0
 13 17  1  0  0  0  0
 14 16  2  0  0  0  0
 14 18  1  0  0  0  0
 15 19  1  0  0  0  0
 16 20  1  0  0  0  0
 17 21  2  0  0  0  0
 18 22  2  0  0  0  0
 19 23  2  0  0  0  0
 20 24  2  0  0  0  0
 21 23  1  0  0  0  0
 22 24  1  0  0  0  0
M  END
>  <DATABASE_ID>
DB00679

>  <DATABASE_NAME>
drugbank

>  <SMILES>
S1c2c(N(c3c1cccc3)CCC1N(CCCC1)C)cc(SC)cc2

>  <INCHI_IDENTIFIER>
InChI=1S/C21H26N2S2/c1-22-13-6-5-7-16(22)12-14-23-18-8-3-4-9-20(18)25-21-11-10-17(24-2)15-19(21)23/h3-4,8-11,15-16H,5-7,12-14H2,1-2H3

>  <INCHI_KEY>
InChIKey=KLBQZWRITKRQQV-UHFFFAOYSA-N

>  <JCHEM_ACCEPTOR_COUNT>
2

>  <JCHEM_AVERAGE_POLARIZABILITY>
43.257004

>  <JCHEM_BIOAVAILABILITY>
1

>  <JCHEM_DONOR_COUNT>
0

>  <JCHEM_EXACT_MASS>
370.15375

>  <JCHEM_FORMAL_CHARGE>
0

>  <JCHEM_FORMULA>
C21H26N2S2

>  <JCHEM_GHOSE_FILTER>
1

>  <JCHEM_IUPAC>
10-[2-(1-methylpiperidin-2-yl)ethyl]-2-(methylsulfanyl)-10H-phenothiazine

>  <ALOGPS_LOGP>
5.9299998

>  <JCHEM_LOGP>
5.469306

>  <ALOGPS_LOGS>
-5.6399999

>  <JCHEM_MASS>
370.57501

>  <JCHEM_MDDR_LIKE_RULE>
0

>  <JCHEM_NUMBER_OF_RINGS>
4

>  <JCHEM_PHYSIOLOGICAL_CHARGE>
1

>  <JCHEM_PKA_STRONGEST_BASIC>
8.9279861

>  <JCHEM_POLAR_SURFACE_AREA>
6.48

>  <JCHEM_REFRACTIVITY>
113.5226

>  <JCHEM_ROTATABLE_BOND_COUNT>
4

>  <JCHEM_RULE_OF_FIVE>
0

>  <ALOGPS_SOLUBILITY>
8.55e-04 g/l

>  <JCHEM_TRADITIONAL_IUPAC>
thioridazine

>  <JCHEM_VEBER_RULE>
1

>  <DRUGBANK_ID>
DB00679

>  <DRUG_GROUPS>
approved

>  <GENERIC_NAME>
Thioridazine

>  <SYNONYMS>
Thioridazin

>  <BRANDS>
Aldazine; Mallorol; Meleril; Mellaril; Mellerette; Melleretten; Melleril; Novoridazine; Ridazin; Ridazine; Sonapax; Thioril

>  <SALTS>
Thioridazine Hydrochloride

$$$$
Warfarin
 OpenBabel02121510022D

 23 25  0  0  1  0  0  0  0  0999 V2000
    1.0990   -0.0380    0.0000 C   0  0  0  0  0  0  0  0  0  0  0  0
    1.8140    0.3750    0.0000 C   0  0  0  0  0  0  0  0  0  0  0  0
    1.8140    1.2000    0.0000 C   0  0  0  0  0  0  0  0  0  0  0  0
    1.0990    1.6120    0.0000 C   0  0  0  0  0  0  0  0  0  0  0  0
    0.3850    0.3750    0.0000 C   0  0  0  0  0  0  0  0  0  0  0  0
    0.3850    1.2000    0.0000 C   0  0  0  0  0  0  0  0  0  0  0  0
   -1.0440    0.3750    0.0000 C   0  0  0  0  0  0  0  0  0  0  0  0
   -2.4730    0.3750    0.0000 C   0  0  0  0  0  0  0  0  0  0  0  0
   -1.7590   -0.0380    0.0000 C   0  0  3  0  0  0  0  0  0  0  0  0
   -1.7590   -0.8620    0.0000 C   0  0  0  0  0  0  0  0  0  0  0  0
   -0.3300   -0.0380    0.0000 C   0  0  0  0  0  0  0  0  0  0  0  0
   -0.3300   -0.8620    0.0000 O   0  0  0  0  0  0  0  0  0  0  0  0
   -0.3300    1.6120    0.0000 O   0  0  0  0  0  0  0  0  0  0  0  0
   -1.0440    1.2000    0.0000 C   0  0  0  0  0  0  0  0  0  0  0  0
   -1.7590    1.6120    0.0000 O   0  0  0  0  0  0  0  0  0  0  0  0
   -3.1880   -0.0380    0.0000 C   0  0  0  0  0  0  0  0  0  0  0  0
   -2.4730    1.2000    0.0000 C   0  0  0  0  0  0  0  0  0  0  0  0
   -3.1870    1.6120    0.0000 C   0  0  0  0  0  0  0  0  0  0  0  0
   -3.9020    1.2000    0.0000 C   0  0  0  0  0  0  0  0  0  0  0  0
   -3.9020    0.3750    0.0000 C   0  0  0  0  0  0  0  0  0  0  0  0
   -2.4730   -1.2750    0.0000 C   0  0  0  0  0  0  0  0  0  0  0  0
   -3.1880   -0.8620    0.0000 O   0  0  0  0  0  0  0  0  0  0  0  0
   -2.4730   -2.1000    0.0000 C   0  0  0  0  0  0  0  0  0  0  0  0
  1  2  1  0  0  0  0
  1  5  2  0  0  0  0
  2  3  2  0  0  0  0
  3  4  1  0  0  0  0
  4  6  2  0  0  0  0
  5  6  1  0  0  0  0
  5 11  1  0  0  0  0
  6 13  1  0  0  0  0
  7  9  1  0  0  0  0
  7 11  2  0  0  0  0
  7 14  1  0  0  0  0
  8  9  1  0  0  0  0
  8 16  1  0  0  0  0
  8 17  2  0  0  0  0
  9 10  1  0  0  0  0
 10 21  1  0  0  0  0
 11 12  1  0  0  0  0
 13 14  1  0  0  0  0
 14 15  2  0  0  0  0
 16 20  2  0  0  0  0
 17 18  1  0  0  0  0
 18 19  2  0  0  0  0
 19 20  1  0  0  0  0
 21 22  2  0  0  0  0
 21 23  1  0  0  0  0
M  END
>  <DATABASE_ID>
DB00682

>  <DATABASE_NAME>
drugbank

>  <SMILES>
O1c2c(cccc2)C(O)=C(C(CC(=O)C)c2ccccc2)C1=O

>  <INCHI_IDENTIFIER>
InChI=1/C19H16O4/c1-12(20)11-15(13-7-3-2-4-8-13)17-18(21)14-9-5-6-10-16(14)23-19(17)22/h2-10,15,21H,11H2,1H3

>  <INCHI_KEY>
InChIKey=PJVWKTKQMONHTI-UHFFFAOYNA-N

>  <JCHEM_ACCEPTOR_COUNT>
3

>  <JCHEM_AVERAGE_POLARIZABILITY>
31.928244

>  <JCHEM_BIOAVAILABILITY>
1

>  <JCHEM_DONOR_COUNT>
1

>  <JCHEM_EXACT_MASS>
308.10486

>  <JCHEM_FORMAL_CHARGE>
0

>  <JCHEM_FORMULA>
C19H16O4

>  <JCHEM_GHOSE_FILTER>
1

>  <JCHEM_IUPAC>
4-hydroxy-3-(3-oxo-1-phenylbutyl)-2H-chromen-2-one

>  <ALOGPS_LOGP>
2.4100001

>  <JCHEM_LOGP>
2.7447073

>  <ALOGPS_LOGS>
-3.8199999

>  <JCHEM_MASS>
308.32791

>  <JCHEM_MDDR_LIKE_RULE>
0

>  <JCHEM_NUMBER_OF_RINGS>
3

>  <JCHEM_PHYSIOLOGICAL_CHARGE>
-1

>  <JCHEM_PKA>
19.418543

>  <JCHEM_PKA_STRONGEST_ACIDIC>
6.330688

>  <JCHEM_PKA_STRONGEST_BASIC>
-6.5907574

>  <JCHEM_POLAR_SURFACE_AREA>
63.599998

>  <JCHEM_REFRACTIVITY>
86.8601

>  <JCHEM_ROTATABLE_BOND_COUNT>
4

>  <JCHEM_RULE_OF_FIVE>
1

>  <ALOGPS_SOLUBILITY>
4.72e-02 g/l

>  <JCHEM_TRADITIONAL_IUPAC>
warfarin

>  <JCHEM_VEBER_RULE>
0

>  <DRUGBANK_ID>
DB00682

>  <DRUG_GROUPS>
approved

>  <GENERIC_NAME>
Warfarin

>  <SYNONYMS>
4-Hydroxy-3-(3-oxo-1-phenylbutyl)coumarin; Coumafene; Zoocoumarin

>  <BRANDS>
Coumadin; Jantoven; Lawarin; Marevan; Waran; Warfant

>  <SALTS>
Warfarin sodium

$$$$
Midazolam
 OpenBabel02121510022D

 23 26  0  0  0  0  0  0  0  0999 V2000
    1.6500   -0.2320    0.0000 Cl  0  0  0  0  0  0  0  0  0  0  0  0
    5.3330    1.8440    0.0000 F   0  0  0  0  0  0  0  0  0  0  0  0
    4.8160   -1.3270    0.0000 N   0  0  0  0  0  0  0  0  0  0  0  0
    5.2280    0.4800    0.0000 N   0  0  0  0  0  0  0  0  0  0  0  0
    5.7350   -2.2850    0.0000 N   0  0  0  0  0  0  0  0  0  0  0  0
    4.0730   -0.9690    0.0000 C   0  0  0  0  0  0  0  0  0  0  0  0
    5.5590   -0.9690    0.0000 C   0  0  0  0  0  0  0  0  0  0  0  0
    3.8890   -0.1640    0.0000 C   0  0  0  0  0  0  0  0  0  0  0  0
    5.7430   -0.1640    0.0000 C   0  0  0  0  0  0  0  0  0  0  0  0
    4.4030    0.4800    0.0000 C   0  0  0  0  0  0  0  0  0  0  0  0
    4.9280   -2.1390    0.0000 C   0  0  0  0  0  0  0  0  0  0  0  0
    6.1240   -1.5630    0.0000 C   0  0  0  0  0  0  0  0  0  0  0  0
    3.4520   -1.5630    0.0000 C   0  0  0  0  0  0  0  0  0  0  0  0
    3.0720    0.1010    0.0000 C   0  0  0  0  0  0  0  0  0  0  0  0
    4.0450    1.2240    0.0000 C   0  0  0  0  0  0  0  0  0  0  0  0
    4.3330   -2.7100    0.0000 C   0  0  0  0  0  0  0  0  0  0  0  0
    2.6290   -1.3160    0.0000 C   0  0  0  0  0  0  0  0  0  0  0  0
    2.4370   -0.4780    0.0000 C   0  0  0  0  0  0  0  0  0  0  0  0
    4.5100    1.9050    0.0000 C   0  0  0  0  0  0  0  0  0  0  0  0
    3.2230    1.2850    0.0000 C   0  0  0  0  0  0  0  0  0  0  0  0
    4.1520    2.6490    0.0000 C   0  0  0  0  0  0  0  0  0  0  0  0
    2.8650    2.0290    0.0000 C   0  0  0  0  0  0  0  0  0  0  0  0
    3.3300    2.7100    0.0000 C   0  0  0  0  0  0  0  0  0  0  0  0
  1 18  1  0  0  0  0
  2 19  1  0  0  0  0
  3  6  1  0  0  0  0
  3  7  1  0  0  0  0
  3 11  1  0  0  0  0
  4  9  1  0  0  0  0
  4 10  2  0  0  0  0
  5 11  2  0  0  0  0
  5 12  1  0  0  0  0
  6  8  2  0  0  0  0
  6 13  1  0  0  0  0
  7  9  1  0  0  0  0
  7 12  2  0  0  0  0
  8 10  1  0  0  0  0
  8 14  1  0  0  0  0
 10 15  1  0  0  0  0
 11 16  1  0  0  0  0
 13 17  2  0  0  0  0
 14 18  2  0  0  0  0
 15 19  2  0  0  0  0
 15 20  1  0  0  0  0
 17 18  1  0  0  0  0
 19 21  1  0  0  0  0
 20 22  2  0  0  0  0
 21 23  2  0  0  0  0
 22 23  1  0  0  0  0
M  END
>  <DATABASE_ID>
DB00683

>  <DATABASE_NAME>
drugbank

>  <SMILES>
Clc1cc2c(-n3c(CN=C2c2ccccc2F)cnc3C)cc1

>  <INCHI_IDENTIFIER>
InChI=1S/C18H13ClFN3/c1-11-21-9-13-10-22-18(14-4-2-3-5-16(14)20)15-8-12(19)6-7-17(15)23(11)13/h2-9H,10H2,1H3

>  <INCHI_KEY>
InChIKey=DDLIGBOFAVUZHB-UHFFFAOYSA-N

>  <JCHEM_ACCEPTOR_COUNT>
2

>  <JCHEM_AVERAGE_POLARIZABILITY>
32.700844

>  <JCHEM_BIOAVAILABILITY>
1

>  <JCHEM_DONOR_COUNT>
0

>  <JCHEM_EXACT_MASS>
325.07822

>  <JCHEM_FORMAL_CHARGE>
0

>  <JCHEM_FORMULA>
C18H13ClFN3

>  <JCHEM_GHOSE_FILTER>
1

>  <JCHEM_IUPAC>
12-chloro-9-(2-fluorophenyl)-3-methyl-2,4,8-triazatricyclo[8.4.0.0^{2,6}]tetradeca-1(10),3,5,8,11,13-hexaene

>  <ALOGPS_LOGP>
3.8900001

>  <JCHEM_LOGP>
3.3348

>  <ALOGPS_LOGS>
-4.52

>  <JCHEM_MASS>
325.767

>  <JCHEM_MDDR_LIKE_RULE>
0

>  <JCHEM_NUMBER_OF_RINGS>
4

>  <JCHEM_PHYSIOLOGICAL_CHARGE>
0

>  <JCHEM_PKA_STRONGEST_BASIC>
6.5715899

>  <JCHEM_POLAR_SURFACE_AREA>
30.18

>  <JCHEM_REFRACTIVITY>
99.429703

>  <JCHEM_ROTATABLE_BOND_COUNT>
1

>  <JCHEM_RULE_OF_FIVE>
1

>  <ALOGPS_SOLUBILITY>
9.87e-03 g/l

>  <JCHEM_TRADITIONAL_IUPAC>
midazolam

>  <JCHEM_VEBER_RULE>
1

>  <DRUGBANK_ID>
DB00683

>  <DRUG_GROUPS>
approved; illicit

>  <GENERIC_NAME>
Midazolam

>  <SYNONYMS>
Midazolam; Midazolamum

>  <BRANDS>
Anquil; Benzosed; Dalam; Damizol; Demizolam; Doricum; Dormicum; Dormid; Dormipron; Dormire; Dormitol; Dormixal; Dormonid; Drimnorth; Epistatus; Flormidal; Fulsed; Fulsed Injection; Garen; Gobbizolam; Hipnazolam; Hipnoz; Hypnofast; Hypnovel; Ipnovel; Nocturna; Setam; Talentum; Terap; Versed

>  <SALTS>
Midazolam Hydrochloride

$$$$
Trovafloxacin
 OpenBabel02121510022D

 32 36  0  0  1  0  0  0  0  0999 V2000
    7.1490    2.0820    0.0000 F   0  0  0  0  0  0  0  0  0  0  0  0
    2.8080   -0.4120    0.0000 F   0  0  0  0  0  0  0  0  0  0  0  0
    4.2360   -2.8880    0.0000 F   0  0  0  0  0  0  0  0  0  0  0  0
    4.2360    2.8880    0.0000 O   0  0  0  0  0  0  0  0  0  0  0  0
    2.0930    1.6500    0.0000 O   0  0  0  0  0  0  0  0  0  0  0  0
    2.8080    2.8880    0.0000 O   0  0  0  0  0  0  0  0  0  0  0  0
    7.1490    0.3930    0.0000 N   0  0  0  0  0  0  0  0  0  0  0  0
    9.5760   -1.0220    0.0000 N   0  0  0  0  0  0  0  0  0  0  0  0
    5.6880    0.3840    0.0000 N   0  0  0  0  0  0  0  0  0  0  0  0
    4.2360    0.4120    0.0000 N   0  0  0  0  0  0  0  0  0  0  0  0
    8.4530    0.1100    0.0000 C   0  0  1  0  0  0  0  0  0  0  0  0
    8.0380   -0.6030    0.0000 C   0  0  2  0  0  0  0  0  0  0  0  0
    8.8640   -0.6060    0.0000 C   0  0  3  0  0  0  0  0  0  0  0  0
    7.9040    0.7250    0.0000 C   0  0  0  0  0  0  0  0  0  0  0  0
    7.2320   -0.4280    0.0000 C   0  0  0  0  0  0  0  0  0  0  0  0
    6.4360    0.8080    0.0000 C   0  0  0  0  0  0  0  0  0  0  0  0
    6.4360    1.6670    0.0000 C   0  0  0  0  0  0  0  0  0  0  0  0
    4.9510    0.8250    0.0000 C   0  0  0  0  0  0  0  0  0  0  0  0
    5.6880    2.0910    0.0000 C   0  0  0  0  0  0  0  0  0  0  0  0
    4.9510    1.6500    0.0000 C   0  0  0  0  0  0  0  0  0  0  0  0
    4.2360    2.0620    0.0000 C   0  0  0  0  0  0  0  0  0  0  0  0
    3.5220    0.8250    0.0000 C   0  0  0  0  0  0  0  0  0  0  0  0
    3.5220    1.6500    0.0000 C   0  0  0  0  0  0  0  0  0  0  0  0
    4.2360   -0.4120    0.0000 C   0  0  0  0  0  0  0  0  0  0  0  0
    3.5220   -0.8250    0.0000 C   0  0  0  0  0  0  0  0  0  0  0  0
    4.9510   -0.8250    0.0000 C   0  0  0  0  0  0  0  0  0  0  0  0
    2.8080    2.0620    0.0000 C   0  0  0  0  0  0  0  0  0  0  0  0
    3.5220   -1.6500    0.0000 C   0  0  0  0  0  0  0  0  0  0  0  0
    4.9510   -1.6500    0.0000 C   0  0  0  0  0  0  0  0  0  0  0  0
    4.2360   -2.0620    0.0000 C   0  0  0  0  0  0  0  0  0  0  0  0
    8.9890    0.4960    0.0000 H   0  0  0  0  0  0  0  0  0  0  0  0
    7.9670   -1.2590    0.0000 H   0  0  0  0  0  0  0  0  0  0  0  0
  1 17  1  0  0  0  0
  2 25  1  0  0  0  0
  3 30  1  0  0  0  0
  4 21  2  0  0  0  0
  5 27  1  0  0  0  0
  6 27  2  0  0  0  0
  7 14  1  0  0  0  0
  7 15  1  0  0  0  0
  7 16  1  0  0  0  0
  8 13  1  0  0  0  0
  9 16  1  0  0  0  0
  9 18  2  0  0  0  0
 10 18  1  0  0  0  0
 10 22  1  0  0  0  0
 10 24  1  0  0  0  0
 11 12  1  0  0  0  0
 11 13  1  0  0  0  0
 11 14  1  0  0  0  0
 11 31  1  1  0  0  0
 12 13  1  0  0  0  0
 12 15  1  0  0  0  0
 12 32  1  1  0  0  0
 16 17  2  0  0  0  0
 17 19  1  0  0  0  0
 18 20  1  0  0  0  0
 19 20  2  0  0  0  0
 20 21  1  0  0  0  0
 21 23  1  0  0  0  0
 22 23  2  0  0  0  0
 23 27  1  0  0  0  0
 24 25  1  0  0  0  0
 24 26  2  0  0  0  0
 25 28  2  0  0  0  0
 26 29  1  0  0  0  0
 28 30  1  0  0  0  0
 29 30  2  0  0  0  0
M  END
>  <DATABASE_ID>
DB00685

>  <DATABASE_NAME>
drugbank

>  <SMILES>
Fc1cc(F)ccc1N1C=C(C(O)=O)C(=O)c2cc(F)c(nc12)N1C[C@@H]2[C@H](C1)C2N

>  <INCHI_IDENTIFIER>
InChI=1S/C20H15F3N4O3/c21-8-1-2-15(13(22)3-8)27-7-12(20(29)30)17(28)9-4-14(23)19(25-18(9)27)26-5-10-11(6-26)16(10)24/h1-4,7,10-11,16H,5-6,24H2,(H,29,30)/t10-,11+,16?

>  <INCHI_KEY>
InChIKey=WVPSKSLAZQPAKQ-SOSAQKQKSA-N

>  <JCHEM_ACCEPTOR_COUNT>
7

>  <JCHEM_AVERAGE_POLARIZABILITY>
38.341618

>  <JCHEM_BIOAVAILABILITY>
1

>  <JCHEM_DONOR_COUNT>
2

>  <JCHEM_EXACT_MASS>
416.10962

>  <JCHEM_FORMAL_CHARGE>
0

>  <JCHEM_FORMULA>
C20H15F3N4O3

>  <JCHEM_GHOSE_FILTER>
1

>  <JCHEM_IUPAC>
7-[(1R,5S)-6-amino-3-azabicyclo[3.1.0]hexan-3-yl]-1-(2,4-difluorophenyl)-6-fluoro-4-oxo-1,4-dihydro-1,8-naphthyridine-3-carboxylic acid

>  <ALOGPS_LOGP>
0.86000001

>  <JCHEM_LOGP>
0.13645041

>  <ALOGPS_LOGS>
-3.77

>  <JCHEM_MASS>
416.3533

>  <JCHEM_MDDR_LIKE_RULE>
0

>  <JCHEM_NUMBER_OF_RINGS>
5

>  <JCHEM_PHYSIOLOGICAL_CHARGE>
0

>  <JCHEM_PKA_STRONGEST_ACIDIC>
5.4131193

>  <JCHEM_PKA_STRONGEST_BASIC>
9.4401026

>  <JCHEM_POLAR_SURFACE_AREA>
99.760002

>  <JCHEM_REFRACTIVITY>
101.0404

>  <JCHEM_ROTATABLE_BOND_COUNT>
3

>  <JCHEM_RULE_OF_FIVE>
1

>  <ALOGPS_SOLUBILITY>
7.04e-02 g/l

>  <JCHEM_TRADITIONAL_IUPAC>
7-[(1R,5S)-6-amino-3-azabicyclo[3.1.0]hexan-3-yl]-1-(2,4-difluorophenyl)-6-fluoro-4-oxo-1,8-naphthyridine-3-carboxylic acid

>  <JCHEM_VEBER_RULE>
0

>  <DRUGBANK_ID>
DB00685

>  <DRUG_GROUPS>
approved; withdrawn

>  <GENERIC_NAME>
Trovafloxacin

>  <BRANDS>
Trovan

>  <SALTS>
Trovafloxacin mesylate

$$$$
Pentosan Polysulfate
 OpenBabel02121510022D

 35 36  0  0  1  0  0  0  0  0999 V2000
    4.2360    1.2380    0.0000 S   0  0  0  0  0  0  0  0  0  0  0  0
    8.5230    1.2380    0.0000 S   0  0  0  0  0  0  0  0  0  0  0  0
    9.9520   -0.4120    0.0000 S   0  0  0  0  0  0  0  0  0  0  0  0
    2.8080   -0.4120    0.0000 S   0  0  0  0  0  0  0  0  0  0  0  0
    6.3800    0.0000    0.0000 O   0  0  0  0  0  0  0  0  0  0  0  0
    7.0940   -1.2380    0.0000 O   0  0  0  0  0  0  0  0  0  0  0  0
    4.9510   -1.6500    0.0000 O   0  0  0  0  0  0  0  0  0  0  0  0
    4.9510    0.8250    0.0000 O   0  0  0  0  0  0  0  0  0  0  0  0
    7.8090    0.8250    0.0000 O   0  0  0  0  0  0  0  0  0  0  0  0
    9.2380    0.0000    0.0000 O   0  0  0  0  0  0  0  0  0  0  0  0
    3.5220    0.0000    0.0000 O   0  0  0  0  0  0  0  0  0  0  0  0
    9.2380   -1.6500    0.0000 O   0  0  0  0  0  0  0  0  0  0  0  0
    3.5220   -1.6500    0.0000 O   0  0  0  0  0  0  0  0  0  0  0  0
    3.5220    1.6500    0.0000 O   0  0  0  0  0  0  0  0  0  0  0  0
    9.2380    1.6500    0.0000 O   0  0  0  0  0  0  0  0  0  0  0  0
   10.6670   -0.8250    0.0000 O   0  0  0  0  0  0  0  0  0  0  0  0
    2.0930   -0.8250    0.0000 O   0  0  0  0  0  0  0  0  0  0  0  0
    3.8240    0.5230    0.0000 O   0  0  0  0  0  0  0  0  0  0  0  0
    4.6490    1.9520    0.0000 O   0  0  0  0  0  0  0  0  0  0  0  0
    8.9360    0.5230    0.0000 O   0  0  0  0  0  0  0  0  0  0  0  0
    8.1110    1.9520    0.0000 O   0  0  0  0  0  0  0  0  0  0  0  0
   10.3650    0.3020    0.0000 O   0  0  0  0  0  0  0  0  0  0  0  0
    9.5400   -1.1270    0.0000 O   0  0  0  0  0  0  0  0  0  0  0  0
    2.3950    0.3020    0.0000 O   0  0  0  0  0  0  0  0  0  0  0  0
    3.2200   -1.1270    0.0000 O   0  0  0  0  0  0  0  0  0  0  0  0
    5.6660   -0.4120    0.0000 C   0  0  1  0  0  0  0  0  0  0  0  0
    4.9510    0.0000    0.0000 C   0  0  1  0  0  0  0  0  0  0  0  0
    7.8090    0.0000    0.0000 C   0  0  1  0  0  0  0  0  0  0  0  0
    7.0940   -0.4120    0.0000 C   0  0  2  0  0  0  0  0  0  0  0  0
    8.5230   -0.4120    0.0000 C   0  0  2  0  0  0  0  0  0  0  0  0
    4.2360   -0.4120    0.0000 C   0  0  2  0  0  0  0  0  0  0  0  0
    8.5230   -1.2380    0.0000 C   0  0  1  0  0  0  0  0  0  0  0  0
    5.6660   -1.2380    0.0000 C   0  0  0  0  0  0  0  0  0  0  0  0
    4.2360   -1.2380    0.0000 C   0  0  1  0  0  0  0  0  0  0  0  0
    7.8090   -1.6500    0.0000 C   0  0  0  0  0  0  0  0  0  0  0  0
  1  8  1  0  0  0  0
  1 14  1  0  0  0  0
  1 18  2  0  0  0  0
  1 19  2  0  0  0  0
  2  9  1  0  0  0  0
  2 15  1  0  0  0  0
  2 20  2  0  0  0  0
  2 21  2  0  0  0  0
  3 10  1  0  0  0  0
  3 16  1  0  0  0  0
  3 22  2  0  0  0  0
  3 23  2  0  0  0  0
  4 11  1  0  0  0  0
  4 17  1  0  0  0  0
  4 24  2  0  0  0  0
  4 25  2  0  0  0  0
  6 29  1  0  0  0  0
  6 35  1  0  0  0  0
  7 33  1  0  0  0  0
  7 34  1  0  0  0  0
 26  5  1  6  0  0  0
 26 27  1  0  0  0  0
 26 33  1  0  0  0  0
 27  8  1  1  0  0  0
 27 31  1  0  0  0  0
 28  9  1  6  0  0  0
 28 29  1  0  0  0  0
 28 30  1  0  0  0  0
 29  5  1  1  0  0  0
 30 10  1  1  0  0  0
 30 32  1  0  0  0  0
 31 11  1  6  0  0  0
 31 34  1  0  0  0  0
 32 12  1  6  0  0  0
 32 35  1  0  0  0  0
 34 13  1  1  0  0  0
M  END
>  <DATABASE_ID>
DB00686

>  <DATABASE_NAME>
drugbank

>  <SMILES>
S(O[C@@H]1[C@@H](OS(O)(=O)=O)[C@@H](OC[C@H]1O[C@@H]1OC[C@@H](O)[C@H](OS(O)(=O)=O)[C@H]1OS(O)(=O)=O)O)(O)(=O)=O

>  <INCHI_IDENTIFIER>
InChI=1S/C10H18O21S4/c11-3-1-26-10(8(31-35(22,23)24)5(3)28-32(13,14)15)27-4-2-25-9(12)7(30-34(19,20)21)6(4)29-33(16,17)18/h3-12H,1-2H2,(H,13,14,15)(H,16,17,18)(H,19,20,21)(H,22,23,24)/t3-,4-,5+,6+,7-,8-,9-,10+/m1/s1

>  <INCHI_KEY>
InChIKey=FCCNSUIJIOOXEZ-SJYYZXOBSA-N

>  <JCHEM_ACCEPTOR_COUNT>
17

>  <JCHEM_AVERAGE_POLARIZABILITY>
46.166557

>  <JCHEM_BIOAVAILABILITY>
0

>  <JCHEM_DONOR_COUNT>
6

>  <JCHEM_EXACT_MASS>
601.92236

>  <JCHEM_FORMAL_CHARGE>
0

>  <JCHEM_FORMULA>
C10H18O21S4

>  <JCHEM_GHOSE_FILTER>
0

>  <JCHEM_IUPAC>
[(2S,3R,4S,5R)-5-hydroxy-2-{[(3R,4S,5R,6R)-6-hydroxy-4,5-bis(sulfooxy)oxan-3-yl]oxy}-4-(sulfooxy)oxan-3-yl]oxidanesulfonic acid

>  <ALOGPS_LOGP>
-2.49

>  <JCHEM_LOGP>
-11.399326

>  <ALOGPS_LOGS>
-2.24

>  <JCHEM_MASS>
602.49701

>  <JCHEM_MDDR_LIKE_RULE>
0

>  <JCHEM_NUMBER_OF_RINGS>
2

>  <JCHEM_PHYSIOLOGICAL_CHARGE>
-4

>  <JCHEM_PKA>
-2.5074635

>  <JCHEM_PKA_STRONGEST_ACIDIC>
-2.9445777

>  <JCHEM_PKA_STRONGEST_BASIC>
-3.5627096

>  <JCHEM_POLAR_SURFACE_AREA>
322.54999

>  <JCHEM_REFRACTIVITY>
96.378899

>  <JCHEM_ROTATABLE_BOND_COUNT>
10

>  <JCHEM_RULE_OF_FIVE>
0

>  <ALOGPS_SOLUBILITY>
3.49e+00 g/l

>  <JCHEM_TRADITIONAL_IUPAC>
pentosan polysulfate

>  <JCHEM_VEBER_RULE>
0

>  <DRUGBANK_ID>
DB00686

>  <DRUG_GROUPS>
approved

>  <GENERIC_NAME>
Pentosan Polysulfate

>  <SYNONYMS>
Pentosan sulfuric polyester; Pentosane polysulfate; Pentosani polysulfas; Pentosano polisulfato; Pentosanpolysulfat

>  <BRANDS>
Comfora; Elmiron; Fibrase; Fibrezym; Hemoclar; Hémoclar; Tavan-SP; Thrombocid

>  <SALTS>
Pentosan Polysulphate Sodium

$$$$
Fludrocortisone
 OpenBabel02121510022D

 29 32  0  0  1  0  0  0  0  0999 V2000
    4.1400    0.3070    0.0000 F   0  0  0  0  0  0  0  0  0  0  0  0
    6.6260    1.5370    0.0000 O   0  0  0  0  0  0  0  0  0  0  0  0
    3.9560    0.9130    0.0000 O   0  0  0  0  0  0  0  0  0  0  0  0
    7.4630    2.0560    0.0000 O   0  0  0  0  0  0  0  0  0  0  0  0
    8.9700    1.3820    0.0000 O   0  0  0  0  0  0  0  0  0  0  0  0
    1.6500   -2.0180    0.0000 O   0  0  0  0  0  0  0  0  0  0  0  0
    6.0990    0.5000    0.0000 C   0  0  1  0  0  0  0  0  0  0  0  0
    6.0990   -0.3250    0.0000 C   0  0  2  0  0  0  0  0  0  0  0  0
    5.3850   -0.7370    0.0000 C   0  0  1  0  0  0  0  0  0  0  0  0
    4.6700   -0.3250    0.0000 C   0  0  2  0  0  0  0  0  0  0  0  0
    6.8800    0.7520    0.0000 C   0  0  1  0  0  0  0  0  0  0  0  0
    5.3850    0.9130    0.0000 C   0  0  0  0  0  0  0  0  0  0  0  0
    3.9200   -0.7430    0.0000 C   0  0  2  0  0  0  0  0  0  0  0  0
    4.6700    0.5000    0.0000 C   0  0  2  0  0  0  0  0  0  0  0  0
    6.8800   -0.5760    0.0000 C   0  0  0  0  0  0  0  0  0  0  0  0
    7.3610    0.0880    0.0000 C   0  0  0  0  0  0  0  0  0  0  0  0
    5.3980   -1.5970    0.0000 C   0  0  0  0  0  0  0  0  0  0  0  0
    6.0990    1.3250    0.0000 C   0  0  0  0  0  0  0  0  0  0  0  0
    3.9130   -1.6020    0.0000 C   0  0  0  0  0  0  0  0  0  0  0  0
    4.6570   -2.0320    0.0000 C   0  0  0  0  0  0  0  0  0  0  0  0
    3.1550   -0.2780    0.0000 C   0  0  0  0  0  0  0  0  0  0  0  0
    3.6440    0.0340    0.0000 C   0  0  0  0  0  0  0  0  0  0  0  0
    7.5480    1.2350    0.0000 C   0  0  0  0  0  0  0  0  0  0  0  0
    2.3730   -0.7130    0.0000 C   0  0  0  0  0  0  0  0  0  0  0  0
    3.1410   -2.0560    0.0000 C   0  0  0  0  0  0  0  0  0  0  0  0
    2.3660   -1.6080    0.0000 C   0  0  0  0  0  0  0  0  0  0  0  0
    8.3010    0.8980    0.0000 C   0  0  0  0  0  0  0  0  0  0  0  0
    6.1690   -0.9810    0.0000 H   0  0  0  0  0  0  0  0  0  0  0  0
    5.9590   -1.0630    0.0000 H   0  0  0  0  0  0  0  0  0  0  0  0
  4 23  2  0  0  0  0
  5 27  1  0  0  0  0
  6 26  2  0  0  0  0
  7  8  1  0  0  0  0
  7 11  1  0  0  0  0
  7 12  1  0  0  0  0
  7 18  1  1  0  0  0
  8  9  1  0  0  0  0
  8 15  1  0  0  0  0
  8 28  1  6  0  0  0
  9 10  1  0  0  0  0
  9 17  1  0  0  0  0
  9 29  1  1  0  0  0
 10  1  1  6  0  0  0
 10 13  1  0  0  0  0
 10 14  1  0  0  0  0
 11  2  1  6  0  0  0
 11 16  1  0  0  0  0
 11 23  1  0  0  0  0
 12 14  1  0  0  0  0
 13 19  1  0  0  0  0
 13 21  1  0  0  0  0
 13 22  1  1  0  0  0
 14  3  1  1  0  0  0
 15 16  1  0  0  0  0
 17 20  1  0  0  0  0
 19 20  1  0  0  0  0
 19 25  2  0  0  0  0
 21 24  1  0  0  0  0
 23 27  1  0  0  0  0
 24 26  1  0  0  0  0
 25 26  1  0  0  0  0
M  END
>  <DATABASE_ID>
DB00687

>  <DATABASE_NAME>
drugbank

>  <SMILES>
F[C@@]12[C@H]([C@@H]3CC[C@](O)(C(=O)CO)[C@]3(C[C@@H]1O)C)CCC1=CC(=O)CC[C@@]12C

>  <INCHI_IDENTIFIER>
InChI=1S/C21H29FO5/c1-18-7-5-13(24)9-12(18)3-4-15-14-6-8-20(27,17(26)11-23)19(14,2)10-16(25)21(15,18)22/h9,14-16,23,25,27H,3-8,10-11H2,1-2H3/t14-,15-,16-,18-,19-,20-,21-/m0/s1

>  <INCHI_KEY>
InChIKey=AAXVEMMRQDVLJB-BULBTXNYSA-N

>  <JCHEM_ACCEPTOR_COUNT>
5

>  <JCHEM_AVERAGE_POLARIZABILITY>
39.596535

>  <JCHEM_BIOAVAILABILITY>
1

>  <JCHEM_DONOR_COUNT>
3

>  <JCHEM_EXACT_MASS>
380.19989

>  <JCHEM_FORMAL_CHARGE>
0

>  <JCHEM_FORMULA>
C21H29FO5

>  <JCHEM_GHOSE_FILTER>
1

>  <JCHEM_IUPAC>
(1R,2S,10S,11S,14R,15S,17S)-1-fluoro-14,17-dihydroxy-14-(2-hydroxyacetyl)-2,15-dimethyltetracyclo[8.7.0.0^{2,7}.0^{11,15}]heptadec-6-en-5-one

>  <ALOGPS_LOGP>
1.35

>  <JCHEM_LOGP>
1.3187734

>  <ALOGPS_LOGS>
-3.23

>  <JCHEM_MASS>
380.45041

>  <JCHEM_MDDR_LIKE_RULE>
0

>  <JCHEM_NUMBER_OF_RINGS>
4

>  <JCHEM_PHYSIOLOGICAL_CHARGE>
0

>  <JCHEM_PKA>
13.498577

>  <JCHEM_PKA_STRONGEST_ACIDIC>
12.550707

>  <JCHEM_PKA_STRONGEST_BASIC>
-3.3299832

>  <JCHEM_POLAR_SURFACE_AREA>
94.830002

>  <JCHEM_REFRACTIVITY>
96.928001

>  <JCHEM_ROTATABLE_BOND_COUNT>
2

>  <JCHEM_RULE_OF_FIVE>
1

>  <ALOGPS_SOLUBILITY>
2.24e-01 g/l

>  <JCHEM_TRADITIONAL_IUPAC>
fludrocortisone

>  <JCHEM_VEBER_RULE>
0

>  <DRUGBANK_ID>
DB00687

>  <DRUG_GROUPS>
approved

>  <GENERIC_NAME>
Fludrocortisone

>  <SYNONYMS>
Fludrocortison; Fludrocortisona; Fludrocortisone; Fludrocortisonum; Fluohydrocortisone

>  <BRANDS>
Adixone; Astonin; Cortineff; Florinef Acetaat; Florinefe; Fludrocortison; Lonikan

>  <SALTS>
Fludrocortisone Acetate

$$$$
Mycophenolate mofetil
 OpenBabel02121510022D

 31 33  0  0  0  0  0  0  0  0999 V2000
    1.6500   -0.5400    0.0000 O   0  0  0  0  0  0  0  0  0  0  0  0
   12.9150   -0.1280    0.0000 O   0  0  0  0  0  0  0  0  0  0  0  0
    5.2220    0.6970    0.0000 O   0  0  0  0  0  0  0  0  0  0  0  0
    9.5090   -0.9530    0.0000 O   0  0  0  0  0  0  0  0  0  0  0  0
   10.9380    1.5220    0.0000 O   0  0  0  0  0  0  0  0  0  0  0  0
   12.6900    1.3200    0.0000 O   0  0  0  0  0  0  0  0  0  0  0  0
    5.9370   -0.5400    0.0000 O   0  0  0  0  0  0  0  0  0  0  0  0
    3.0790    0.2850    0.0000 N   0  0  0  0  0  0  0  0  0  0  0  0
    3.0790   -0.5400    0.0000 C   0  0  0  0  0  0  0  0  0  0  0  0
    2.3640    0.6970    0.0000 C   0  0  0  0  0  0  0  0  0  0  0  0
    3.7940    0.6970    0.0000 C   0  0  0  0  0  0  0  0  0  0  0  0
    2.3640   -0.9530    0.0000 C   0  0  0  0  0  0  0  0  0  0  0  0
    1.6500    0.2850    0.0000 C   0  0  0  0  0  0  0  0  0  0  0  0
   11.6530   -0.5400    0.0000 C   0  0  0  0  0  0  0  0  0  0  0  0
   10.2240    0.2850    0.0000 C   0  0  0  0  0  0  0  0  0  0  0  0
   11.6530    0.2850    0.0000 C   0  0  0  0  0  0  0  0  0  0  0  0
   10.9380   -0.9530    0.0000 C   0  0  0  0  0  0  0  0  0  0  0  0
    4.5080    0.2850    0.0000 C   0  0  0  0  0  0  0  0  0  0  0  0
   10.2240   -0.5400    0.0000 C   0  0  0  0  0  0  0  0  0  0  0  0
   10.9380    0.6970    0.0000 C   0  0  0  0  0  0  0  0  0  0  0  0
    9.5090    0.6970    0.0000 C   0  0  0  0  0  0  0  0  0  0  0  0
   12.4340   -0.7920    0.0000 C   0  0  0  0  0  0  0  0  0  0  0  0
    8.7950    0.2850    0.0000 C   0  0  0  0  0  0  0  0  0  0  0  0
   12.4340    0.5360    0.0000 C   0  0  0  0  0  0  0  0  0  0  0  0
    7.3660    0.2850    0.0000 C   0  0  0  0  0  0  0  0  0  0  0  0
    8.0800    0.6970    0.0000 C   0  0  0  0  0  0  0  0  0  0  0  0
   10.9380   -1.7780    0.0000 C   0  0  0  0  0  0  0  0  0  0  0  0
    6.6520    0.6970    0.0000 C   0  0  0  0  0  0  0  0  0  0  0  0
    5.9370    0.2850    0.0000 C   0  0  0  0  0  0  0  0  0  0  0  0
    8.0800    1.5220    0.0000 C   0  0  0  0  0  0  0  0  0  0  0  0
    9.5090   -1.7780    0.0000 C   0  0  0  0  0  0  0  0  0  0  0  0
  1 12  1  0  0  0  0
  1 13  1  0  0  0  0
  2 22  1  0  0  0  0
  2 24  1  0  0  0  0
  3 18  1  0  0  0  0
  3 29  1  0  0  0  0
  4 19  1  0  0  0  0
  4 31  1  0  0  0  0
  5 20  1  0  0  0  0
  6 24  2  0  0  0  0
  7 29  2  0  0  0  0
  8  9  1  0  0  0  0
  8 10  1  0  0  0  0
  8 11  1  0  0  0  0
  9 12  1  0  0  0  0
 10 13  1  0  0  0  0
 11 18  1  0  0  0  0
 14 16  2  0  0  0  0
 14 17  1  0  0  0  0
 14 22  1  0  0  0  0
 15 19  1  0  0  0  0
 15 20  2  0  0  0  0
 15 21  1  0  0  0  0
 16 20  1  0  0  0  0
 16 24  1  0  0  0  0
 17 19  2  0  0  0  0
 17 27  1  0  0  0  0
 21 23  1  0  0  0  0
 23 26  2  0  0  0  0
 25 26  1  0  0  0  0
 25 28  1  0  0  0  0
 26 30  1  0  0  0  0
 28 29  1  0  0  0  0
M  END
>  <DATABASE_ID>
DB00688

>  <DATABASE_NAME>
drugbank

>  <SMILES>
O1Cc2c(c(O)c(C\C=C(\CCC(OCCN3CCOCC3)=O)/C)c(OC)c2C)C1=O

>  <INCHI_IDENTIFIER>
InChI=1S/C23H31NO7/c1-15(5-7-19(25)30-13-10-24-8-11-29-12-9-24)4-6-17-21(26)20-18(14-31-23(20)27)16(2)22(17)28-3/h4,26H,5-14H2,1-3H3/b15-4+

>  <INCHI_KEY>
InChIKey=RTGDFNSFWBGLEC-SYZQJQIISA-N

>  <JCHEM_ACCEPTOR_COUNT>
6

>  <JCHEM_AVERAGE_POLARIZABILITY>
45.55006

>  <JCHEM_BIOAVAILABILITY>
1

>  <JCHEM_DONOR_COUNT>
1

>  <JCHEM_EXACT_MASS>
433.21005

>  <JCHEM_FORMAL_CHARGE>
0

>  <JCHEM_FORMULA>
C23H31NO7

>  <JCHEM_GHOSE_FILTER>
1

>  <JCHEM_IUPAC>
2-(morpholin-4-yl)ethyl (4E)-6-(4-hydroxy-6-methoxy-7-methyl-3-oxo-1,3-dihydro-2-benzofuran-5-yl)-4-methylhex-4-enoate

>  <ALOGPS_LOGP>
2.1700001

>  <JCHEM_LOGP>
3.4736357

>  <ALOGPS_LOGS>
-3.6600001

>  <JCHEM_MASS>
433.49469

>  <JCHEM_MDDR_LIKE_RULE>
1

>  <JCHEM_NUMBER_OF_RINGS>
3

>  <JCHEM_PHYSIOLOGICAL_CHARGE>
0

>  <JCHEM_PKA>
15.674685

>  <JCHEM_PKA_STRONGEST_ACIDIC>
9.7588921

>  <JCHEM_PKA_STRONGEST_BASIC>
6.1946068

>  <JCHEM_POLAR_SURFACE_AREA>
94.529999

>  <JCHEM_REFRACTIVITY>
117.0961

>  <JCHEM_ROTATABLE_BOND_COUNT>
10

>  <JCHEM_RULE_OF_FIVE>
1

>  <ALOGPS_SOLUBILITY>
9.50e-02 g/l

>  <JCHEM_TRADITIONAL_IUPAC>
mycophenolate mofetil

>  <JCHEM_VEBER_RULE>
0

>  <DRUGBANK_ID>
DB00688

>  <DRUG_GROUPS>
approved; investigational

>  <GENERIC_NAME>
Mycophenolate mofetil

>  <SYNONYMS>
MMF

>  <BRANDS>
CellCept; CellCept  Oral Suspension ; CellCept Intravenous

$$$$
Flurazepam
 OpenBabel02121510022D

 27 29  0  0  0  0  0  0  0  0999 V2000
    5.2300   -2.7290    0.0000 Cl  0  0  0  0  0  0  0  0  0  0  0  0
    8.0730    0.4000    0.0000 F   0  0  0  0  0  0  0  0  0  0  0  0
    5.0240    1.9900    0.0000 O   0  0  0  0  0  0  0  0  0  0  0  0
    4.8670    0.6010    0.0000 N   0  0  0  0  0  0  0  0  0  0  0  0
    3.0160    1.7570    0.0000 N   0  0  0  0  0  0  0  0  0  0  0  0
    6.7210    0.6010    0.0000 N   0  0  0  0  0  0  0  0  0  0  0  0
    4.0630    0.7850    0.0000 C   0  0  0  0  0  0  0  0  0  0  0  0
    3.8200    1.5730    0.0000 C   0  0  0  0  0  0  0  0  0  0  0  0
    5.0510   -0.2030    0.0000 C   0  0  0  0  0  0  0  0  0  0  0  0
    2.4540    1.1520    0.0000 C   0  0  0  0  0  0  0  0  0  0  0  0
    2.7720    2.5450    0.0000 C   0  0  0  0  0  0  0  0  0  0  0  0
    5.7940   -0.5610    0.0000 C   0  0  0  0  0  0  0  0  0  0  0  0
    5.3820    1.2460    0.0000 C   0  0  0  0  0  0  0  0  0  0  0  0
    6.5380   -0.2030    0.0000 C   0  0  0  0  0  0  0  0  0  0  0  0
    6.2070    1.2460    0.0000 C   0  0  0  0  0  0  0  0  0  0  0  0
    4.3340   -0.6760    0.0000 C   0  0  0  0  0  0  0  0  0  0  0  0
    5.8720   -1.4170    0.0000 C   0  0  0  0  0  0  0  0  0  0  0  0
    1.6500    1.3360    0.0000 C   0  0  0  0  0  0  0  0  0  0  0  0
    1.9680    2.7290    0.0000 C   0  0  0  0  0  0  0  0  0  0  0  0
    7.1830   -0.7170    0.0000 C   0  0  0  0  0  0  0  0  0  0  0  0
    4.3910   -1.5340    0.0000 C   0  0  0  0  0  0  0  0  0  0  0  0
    5.1650   -1.9060    0.0000 C   0  0  0  0  0  0  0  0  0  0  0  0
    7.9510   -0.4160    0.0000 C   0  0  0  0  0  0  0  0  0  0  0  0
    7.0600   -1.5330    0.0000 C   0  0  0  0  0  0  0  0  0  0  0  0
    8.5960   -0.9300    0.0000 C   0  0  0  0  0  0  0  0  0  0  0  0
    7.7050   -2.0470    0.0000 C   0  0  0  0  0  0  0  0  0  0  0  0
    8.4730   -1.7460    0.0000 C   0  0  0  0  0  0  0  0  0  0  0  0
  1 22  1  0  0  0  0
  2 23  1  0  0  0  0
  3 13  2  0  0  0  0
  4  7  1  0  0  0  0
  4  9  1  0  0  0  0
  4 13  1  0  0  0  0
  5  8  1  0  0  0  0
  5 10  1  0  0  0  0
  5 11  1  0  0  0  0
  6 14  2  0  0  0  0
  6 15  1  0  0  0  0
  7  8  1  0  0  0  0
  9 12  2  0  0  0  0
  9 16  1  0  0  0  0
 10 18  1  0  0  0  0
 11 19  1  0  0  0  0
 12 14  1  0  0  0  0
 12 17  1  0  0  0  0
 13 15  1  0  0  0  0
 14 20  1  0  0  0  0
 16 21  2  0  0  0  0
 17 22  2  0  0  0  0
 20 23  2  0  0  0  0
 20 24  1  0  0  0  0
 21 22  1  0  0  0  0
 23 25  1  0  0  0  0
 24 26  2  0  0  0  0
 25 27  2  0  0  0  0
 26 27  1  0  0  0  0
M  END
>  <DATABASE_ID>
DB00690

>  <DATABASE_NAME>
drugbank

>  <SMILES>
Clc1cc2c(N(CCN(CC)CC)C(=O)CN=C2c2ccccc2F)cc1

>  <INCHI_IDENTIFIER>
InChI=1S/C21H23ClFN3O/c1-3-25(4-2)11-12-26-19-10-9-15(22)13-17(19)21(24-14-20(26)27)16-7-5-6-8-18(16)23/h5-10,13H,3-4,11-12,14H2,1-2H3

>  <INCHI_KEY>
InChIKey=SAADBVWGJQAEFS-UHFFFAOYSA-N

>  <JCHEM_ACCEPTOR_COUNT>
3

>  <JCHEM_AVERAGE_POLARIZABILITY>
41.220642

>  <JCHEM_BIOAVAILABILITY>
1

>  <JCHEM_DONOR_COUNT>
0

>  <JCHEM_EXACT_MASS>
387.15137

>  <JCHEM_FORMAL_CHARGE>
0

>  <JCHEM_FORMULA>
C21H23ClFN3O

>  <JCHEM_GHOSE_FILTER>
1

>  <JCHEM_IUPAC>
7-chloro-1-[2-(diethylamino)ethyl]-5-(2-fluorophenyl)-2,3-dihydro-1H-1,4-benzodiazepin-2-one

>  <ALOGPS_LOGP>
3.8099999

>  <JCHEM_LOGP>
3.9510489

>  <ALOGPS_LOGS>
-4.5900002

>  <JCHEM_MASS>
387.87799

>  <JCHEM_MDDR_LIKE_RULE>
1

>  <JCHEM_NUMBER_OF_RINGS>
3

>  <JCHEM_PHYSIOLOGICAL_CHARGE>
1

>  <JCHEM_PKA_STRONGEST_BASIC>
8.7103519

>  <JCHEM_POLAR_SURFACE_AREA>
35.91

>  <JCHEM_REFRACTIVITY>
107.5446

>  <JCHEM_ROTATABLE_BOND_COUNT>
6

>  <JCHEM_RULE_OF_FIVE>
1

>  <ALOGPS_SOLUBILITY>
1.00e-02 g/l

>  <JCHEM_TRADITIONAL_IUPAC>
flurazepam

>  <JCHEM_VEBER_RULE>
1

>  <DRUGBANK_ID>
DB00690

>  <DRUG_GROUPS>
approved; illicit

>  <GENERIC_NAME>
Flurazepam

>  <SYNONYMS>
Flurazepam; Flurazépam; Flurazepamum

>  <BRANDS>
Dalmadorm; Dalmadorm medium; Dalmane; Felison; Flunox; Sompan; Valdorm

>  <SALTS>
Flurazepam Hydrochloride

$$$$
Moexipril
 OpenBabel02121510022D

 36 38  0  0  1  0  0  0  0  0999 V2000
    3.0790    1.5220    0.0000 O   0  0  0  0  0  0  0  0  0  0  0  0
    3.7940    3.5850    0.0000 O   0  0  0  0  0  0  0  0  0  0  0  0
    8.1350    2.7800    0.0000 O   0  0  0  0  0  0  0  0  0  0  0  0
    8.1350    1.0900    0.0000 O   0  0  0  0  0  0  0  0  0  0  0  0
    3.0790    2.3470    0.0000 O   0  0  0  0  0  0  0  0  0  0  0  0
    2.3640   -2.1900    0.0000 O   0  0  0  0  0  0  0  0  0  0  0  0
    1.6500   -0.9530    0.0000 O   0  0  0  0  0  0  0  0  0  0  0  0
    4.5080    1.5220    0.0000 N   0  0  0  0  0  0  0  0  0  0  0  0
    3.0790   -0.1280    0.0000 N   0  0  0  0  0  0  0  0  0  0  0  0
    4.5080    2.3470    0.0000 C   0  0  1  0  0  0  0  0  0  0  0  0
    5.2220    2.7600    0.0000 C   0  0  0  0  0  0  0  0  0  0  0  0
    5.2220    1.1100    0.0000 C   0  0  0  0  0  0  0  0  0  0  0  0
    5.9370    2.3470    0.0000 C   0  0  0  0  0  0  0  0  0  0  0  0
    5.9370    1.5220    0.0000 C   0  0  0  0  0  0  0  0  0  0  0  0
    3.7940    0.2850    0.0000 C   0  0  2  0  0  0  0  0  0  0  0  0
    3.7940    1.1100    0.0000 C   0  0  0  0  0  0  0  0  0  0  0  0
    3.0790   -0.9530    0.0000 C   0  0  1  0  0  0  0  0  0  0  0  0
    6.6740    2.7880    0.0000 C   0  0  0  0  0  0  0  0  0  0  0  0
    3.7940    2.7600    0.0000 C   0  0  0  0  0  0  0  0  0  0  0  0
    6.6740    1.0810    0.0000 C   0  0  0  0  0  0  0  0  0  0  0  0
    3.7940   -1.3650    0.0000 C   0  0  0  0  0  0  0  0  0  0  0  0
    4.5080   -0.1280    0.0000 C   0  0  0  0  0  0  0  0  0  0  0  0
    7.4220    2.3640    0.0000 C   0  0  0  0  0  0  0  0  0  0  0  0
    7.4220    1.5050    0.0000 C   0  0  0  0  0  0  0  0  0  0  0  0
    3.7940   -2.1900    0.0000 C   0  0  0  0  0  0  0  0  0  0  0  0
    2.3640   -1.3650    0.0000 C   0  0  0  0  0  0  0  0  0  0  0  0
    4.5080   -2.6030    0.0000 C   0  0  0  0  0  0  0  0  0  0  0  0
    5.2220   -2.1900    0.0000 C   0  0  0  0  0  0  0  0  0  0  0  0
    4.5080   -3.4280    0.0000 C   0  0  0  0  0  0  0  0  0  0  0  0
    8.1320    3.6040    0.0000 C   0  0  0  0  0  0  0  0  0  0  0  0
    8.1320    0.2650    0.0000 C   0  0  0  0  0  0  0  0  0  0  0  0
    1.6500   -2.6030    0.0000 C   0  0  0  0  0  0  0  0  0  0  0  0
    5.9370   -2.6030    0.0000 C   0  0  0  0  0  0  0  0  0  0  0  0
    5.2220   -3.8400    0.0000 C   0  0  0  0  0  0  0  0  0  0  0  0
    5.9370   -3.4280    0.0000 C   0  0  0  0  0  0  0  0  0  0  0  0
    1.6500   -3.4280    0.0000 C   0  0  0  0  0  0  0  0  0  0  0  0
  1 16  2  0  0  0  0
  2 19  1  0  0  0  0
  3 23  1  0  0  0  0
  3 30  1  0  0  0  0
  4 24  1  0  0  0  0
  4 31  1  0  0  0  0
  5 19  2  0  0  0  0
  6 26  1  0  0  0  0
  6 32  1  0  0  0  0
  7 26  2  0  0  0  0
  8 10  1  0  0  0  0
  8 12  1  0  0  0  0
  8 16  1  0  0  0  0
 10 11  1  0  0  0  0
 10 19  1  6  0  0  0
 11 13  1  0  0  0  0
 12 14  1  0  0  0  0
 13 14  1  0  0  0  0
 13 18  2  0  0  0  0
 14 20  2  0  0  0  0
 15  9  1  6  0  0  0
 15 16  1  0  0  0  0
 15 22  1  0  0  0  0
 17  9  1  1  0  0  0
 17 21  1  0  0  0  0
 17 26  1  0  0  0  0
 18 23  1  0  0  0  0
 20 24  1  0  0  0  0
 21 25  1  0  0  0  0
 23 24  2  0  0  0  0
 25 27  1  0  0  0  0
 27 28  2  0  0  0  0
 27 29  1  0  0  0  0
 28 33  1  0  0  0  0
 29 34  2  0  0  0  0
 32 36  1  0  0  0  0
 33 35  2  0  0  0  0
 34 35  1  0  0  0  0
M  END
>  <DATABASE_ID>
DB00691

>  <DATABASE_NAME>
drugbank

>  <SMILES>
O(C)c1cc2C[C@H](N(Cc2cc1OC)C(=O)[C@@H](N[C@@H](CCc1ccccc1)C(OCC)=O)C)C(O)=O

>  <INCHI_IDENTIFIER>
InChI=1S/C27H34N2O7/c1-5-36-27(33)21(12-11-18-9-7-6-8-10-18)28-17(2)25(30)29-16-20-15-24(35-4)23(34-3)14-19(20)13-22(29)26(31)32/h6-10,14-15,17,21-22,28H,5,11-13,16H2,1-4H3,(H,31,32)/t17-,21-,22-/m0/s1

>  <INCHI_KEY>
InChIKey=UWWDHYUMIORJTA-HSQYWUDLSA-N

>  <JCHEM_ACCEPTOR_COUNT>
7

>  <JCHEM_AVERAGE_POLARIZABILITY>
53.554092

>  <JCHEM_BIOAVAILABILITY>
1

>  <JCHEM_DONOR_COUNT>
2

>  <JCHEM_EXACT_MASS>
498.2366

>  <JCHEM_FORMAL_CHARGE>
0

>  <JCHEM_FORMULA>
C27H34N2O7

>  <JCHEM_GHOSE_FILTER>
0

>  <JCHEM_IUPAC>
(3S)-2-[(2S)-2-{[(2S)-1-ethoxy-1-oxo-4-phenylbutan-2-yl]amino}propanoyl]-6,7-dimethoxy-1,2,3,4-tetrahydroisoquinoline-3-carboxylic acid

>  <ALOGPS_LOGP>
1.52

>  <JCHEM_LOGP>
1.5021217

>  <ALOGPS_LOGS>
-4.9299998

>  <JCHEM_MASS>
498.56812

>  <JCHEM_MDDR_LIKE_RULE>
1

>  <JCHEM_NUMBER_OF_RINGS>
3

>  <JCHEM_PHYSIOLOGICAL_CHARGE>
-1

>  <JCHEM_PKA_STRONGEST_ACIDIC>
3.4623179

>  <JCHEM_PKA_STRONGEST_BASIC>
5.1956534

>  <JCHEM_POLAR_SURFACE_AREA>
114.4

>  <JCHEM_REFRACTIVITY>
132.8822

>  <JCHEM_ROTATABLE_BOND_COUNT>
12

>  <JCHEM_RULE_OF_FIVE>
1

>  <ALOGPS_SOLUBILITY>
5.85e-03 g/l

>  <JCHEM_TRADITIONAL_IUPAC>
moexipril

>  <JCHEM_VEBER_RULE>
0

>  <DRUGBANK_ID>
DB00691

>  <DRUG_GROUPS>
approved

>  <GENERIC_NAME>
Moexipril

>  <SYNONYMS>
Moexiprilum

>  <BRANDS>
Univasc

>  <SALTS>
Moexipril Hydrochloride

$$$$
Phentolamine
 OpenBabel02121510022D

 21 23  0  0  1  0  0  0  0  0999 V2000
    2.0890   -2.2350    0.0000 O   0  0  0  0  0  0  0  0  0  0  0  0
    3.5180    0.2400    0.0000 N   0  0  0  0  0  0  0  0  0  0  0  0
    2.1360    1.9620    0.0000 N   0  0  0  0  0  0  0  0  0  0  0  0
    3.4710    1.9620    0.0000 N   0  0  0  0  0  0  0  0  0  0  0  0
    2.8040    0.6520    0.0000 C   0  0  0  0  0  0  0  0  0  0  0  0
    2.8040    1.4770    0.0000 C   0  0  0  0  0  0  0  0  0  0  0  0
    2.3920    2.7470    0.0000 C   0  0  0  0  0  0  0  0  0  0  0  0
    3.2160    2.7470    0.0000 C   0  0  0  0  0  0  0  0  0  0  0  0
    4.2330    0.6520    0.0000 C   0  0  0  0  0  0  0  0  0  0  0  0
    3.5180   -0.5850    0.0000 C   0  0  0  0  0  0  0  0  0  0  0  0
    4.9470    0.2400    0.0000 C   0  0  0  0  0  0  0  0  0  0  0  0
    4.2330    1.4770    0.0000 C   0  0  0  0  0  0  0  0  0  0  0  0
    2.8040   -0.9980    0.0000 C   0  0  0  0  0  0  0  0  0  0  0  0
    4.2330   -0.9980    0.0000 C   0  0  0  0  0  0  0  0  0  0  0  0
    5.6620    1.4770    0.0000 C   0  0  0  0  0  0  0  0  0  0  0  0
    5.6620    0.6520    0.0000 C   0  0  0  0  0  0  0  0  0  0  0  0
    4.9470    1.8900    0.0000 C   0  0  0  0  0  0  0  0  0  0  0  0
    2.8040   -1.8230    0.0000 C   0  0  0  0  0  0  0  0  0  0  0  0
    4.2330   -1.8230    0.0000 C   0  0  0  0  0  0  0  0  0  0  0  0
    3.5180   -2.2350    0.0000 C   0  0  0  0  0  0  0  0  0  0  0  0
    6.3760    1.8900    0.0000 C   0  0  0  0  0  0  0  0  0  0  0  0
  1 18  1  0  0  0  0
  2  5  1  0  0  0  0
  2  9  1  0  0  0  0
  2 10  1  0  0  0  0
  3  6  1  0  0  0  0
  3  7  1  0  0  0  0
  4  6  2  0  0  0  0
  4  8  1  0  0  0  0
  5  6  1  0  0  0  0
  7  8  1  0  0  0  0
  9 11  2  0  0  0  0
  9 12  1  0  0  0  0
 10 13  2  0  0  0  0
 10 14  1  0  0  0  0
 11 16  1  0  0  0  0
 12 17  2  0  0  0  0
 13 18  1  0  0  0  0
 14 19  2  0  0  0  0
 15 16  2  0  0  0  0
 15 17  1  0  0  0  0
 15 21  1  0  0  0  0
 18 20  2  0  0  0  0
 19 20  1  0  0  0  0
M  END
>  <DATABASE_ID>
DB00692

>  <DATABASE_NAME>
drugbank

>  <SMILES>
Oc1cc(N(CC=2NCCN=2)c2ccc(cc2)C)ccc1

>  <INCHI_IDENTIFIER>
InChI=1S/C17H19N3O/c1-13-5-7-14(8-6-13)20(12-17-18-9-10-19-17)15-3-2-4-16(21)11-15/h2-8,11,21H,9-10,12H2,1H3,(H,18,19)

>  <INCHI_KEY>
InChIKey=MRBDMNSDAVCSSF-UHFFFAOYSA-N

>  <JCHEM_ACCEPTOR_COUNT>
4

>  <JCHEM_AVERAGE_POLARIZABILITY>
31.366165

>  <JCHEM_BIOAVAILABILITY>
1

>  <JCHEM_DONOR_COUNT>
2

>  <JCHEM_EXACT_MASS>
281.1528

>  <JCHEM_FORMAL_CHARGE>
0

>  <JCHEM_FORMULA>
C17H19N3O

>  <JCHEM_GHOSE_FILTER>
1

>  <JCHEM_IUPAC>
3-[(4,5-dihydro-1H-imidazol-2-ylmethyl)(4-methylphenyl)amino]phenol

>  <ALOGPS_LOGP>
2.9100001

>  <JCHEM_LOGP>
2.5151081

>  <ALOGPS_LOGS>
-3.02

>  <JCHEM_MASS>
281.35229

>  <JCHEM_MDDR_LIKE_RULE>
0

>  <JCHEM_NUMBER_OF_RINGS>
3

>  <JCHEM_PHYSIOLOGICAL_CHARGE>
1

>  <JCHEM_PKA_STRONGEST_ACIDIC>
9.7792377

>  <JCHEM_PKA_STRONGEST_BASIC>
9.0188942

>  <JCHEM_POLAR_SURFACE_AREA>
47.860001

>  <JCHEM_REFRACTIVITY>
84.251297

>  <JCHEM_ROTATABLE_BOND_COUNT>
4

>  <JCHEM_RULE_OF_FIVE>
1

>  <ALOGPS_SOLUBILITY>
2.72e-01 g/l

>  <JCHEM_TRADITIONAL_IUPAC>
phentolamine

>  <JCHEM_VEBER_RULE>
0

>  <DRUGBANK_ID>
DB00692

>  <DRUG_GROUPS>
approved

>  <GENERIC_NAME>
Phentolamine

>  <SYNONYMS>
Fentolamina; Phentolamin; Phentolamine; Phentolaminum; Vesomax

>  <BRANDS>
OraVerse; Regitin; Regitina; Regitine; Rogitine; Vigamed

>  <SALTS>
Phentolamine Mesylate

$$$$
Furosemide
 OpenBabel02121510022D

 21 22  0  0  0  0  0  0  0  0999 V2000
    1.6500    1.5380    0.0000 Cl  0  0  0  0  0  0  0  0  0  0  0  0
    3.0790    2.3630    0.0000 S   0  0  0  0  0  0  0  0  0  0  0  0
    3.0320   -2.6590    0.0000 O   0  0  0  0  0  0  0  0  0  0  0  0
    2.2540    2.3630    0.0000 O   0  0  0  0  0  0  0  0  0  0  0  0
    3.9040    2.3630    0.0000 O   0  0  0  0  0  0  0  0  0  0  0  0
    5.2220    0.3010    0.0000 O   0  0  0  0  0  0  0  0  0  0  0  0
    4.5080   -0.9370    0.0000 O   0  0  0  0  0  0  0  0  0  0  0  0
    3.0790   -0.9370    0.0000 N   0  0  0  0  0  0  0  0  0  0  0  0
    3.0790    3.1880    0.0000 N   0  0  0  0  0  0  0  0  0  0  0  0
    3.0790   -0.1120    0.0000 C   0  0  0  0  0  0  0  0  0  0  0  0
    3.0790    1.5380    0.0000 C   0  0  0  0  0  0  0  0  0  0  0  0
    3.7940    0.3010    0.0000 C   0  0  0  0  0  0  0  0  0  0  0  0
    3.7940    1.1260    0.0000 C   0  0  0  0  0  0  0  0  0  0  0  0
    2.3640   -1.3490    0.0000 C   0  0  0  0  0  0  0  0  0  0  0  0
    2.3640    0.3010    0.0000 C   0  0  0  0  0  0  0  0  0  0  0  0
    2.3640    1.1260    0.0000 C   0  0  0  0  0  0  0  0  0  0  0  0
    2.3640   -2.1740    0.0000 C   0  0  0  0  0  0  0  0  0  0  0  0
    4.5080   -0.1120    0.0000 C   0  0  0  0  0  0  0  0  0  0  0  0
    1.6970   -2.6590    0.0000 C   0  0  0  0  0  0  0  0  0  0  0  0
    1.9520   -3.4440    0.0000 C   0  0  0  0  0  0  0  0  0  0  0  0
    2.7770   -3.4440    0.0000 C   0  0  0  0  0  0  0  0  0  0  0  0
  1 16  1  0  0  0  0
  2  4  2  0  0  0  0
  2  5  2  0  0  0  0
  2  9  1  0  0  0  0
  2 11  1  0  0  0  0
  3 17  1  0  0  0  0
  3 21  1  0  0  0  0
  6 18  1  0  0  0  0
  7 18  2  0  0  0  0
  8 10  1  0  0  0  0
  8 14  1  0  0  0  0
 10 12  2  0  0  0  0
 10 15  1  0  0  0  0
 11 13  2  0  0  0  0
 11 16  1  0  0  0  0
 12 13  1  0  0  0  0
 12 18  1  0  0  0  0
 14 17  1  0  0  0  0
 15 16  2  0  0  0  0
 17 19  2  0  0  0  0
 19 20  1  0  0  0  0
 20 21  2  0  0  0  0
M  END
>  <DATABASE_ID>
DB00695

>  <DATABASE_NAME>
drugbank

>  <SMILES>
Clc1cc(NCc2occc2)c(cc1S(=O)(=O)N)C(O)=O

>  <INCHI_IDENTIFIER>
InChI=1S/C12H11ClN2O5S/c13-9-5-10(15-6-7-2-1-3-20-7)8(12(16)17)4-11(9)21(14,18)19/h1-5,15H,6H2,(H,16,17)(H2,14,18,19)

>  <INCHI_KEY>
InChIKey=ZZUFCTLCJUWOSV-UHFFFAOYSA-N

>  <JCHEM_ACCEPTOR_COUNT>
5

>  <JCHEM_AVERAGE_POLARIZABILITY>
30.554962

>  <JCHEM_BIOAVAILABILITY>
1

>  <JCHEM_DONOR_COUNT>
3

>  <JCHEM_EXACT_MASS>
330.00772

>  <JCHEM_FORMAL_CHARGE>
0

>  <JCHEM_FORMULA>
C12H11ClN2O5S

>  <JCHEM_GHOSE_FILTER>
1

>  <JCHEM_IUPAC>
4-chloro-2-[(furan-2-ylmethyl)amino]-5-sulfamoylbenzoic acid

>  <ALOGPS_LOGP>
2.71

>  <JCHEM_LOGP>
1.748402

>  <ALOGPS_LOGS>
-3.45

>  <JCHEM_MASS>
330.74399

>  <JCHEM_MDDR_LIKE_RULE>
0

>  <JCHEM_NUMBER_OF_RINGS>
2

>  <JCHEM_PHYSIOLOGICAL_CHARGE>
-1

>  <JCHEM_PKA>
9.8303308

>  <JCHEM_PKA_STRONGEST_ACIDIC>
4.2515082

>  <JCHEM_PKA_STRONGEST_BASIC>
-1.5214275

>  <JCHEM_POLAR_SURFACE_AREA>
122.63

>  <JCHEM_REFRACTIVITY>
77.474197

>  <JCHEM_ROTATABLE_BOND_COUNT>
5

>  <JCHEM_RULE_OF_FIVE>
1

>  <ALOGPS_SOLUBILITY>
1.18e-01 g/l

>  <JCHEM_TRADITIONAL_IUPAC>
furosemide

>  <JCHEM_VEBER_RULE>
0

>  <DRUGBANK_ID>
DB00695

>  <DRUG_GROUPS>
approved

>  <GENERIC_NAME>
Furosemide

>  <SYNONYMS>
Frusemide; Furosemid; Furosemida; Furosemidu; Furosemidum

>  <BRANDS>
Diurapid; Diurin; Diurmessel; Eutensin; Frumex; Frusenex; Frusol; Furo-Puren; Lasix; Seguril

$$$$
Tizanidine
 OpenBabel02121510022D

 16 18  0  0  0  0  0  0  0  0999 V2000
    2.2410   -0.3750    0.0000 Cl  0  0  0  0  0  0  0  0  0  0  0  0
    5.6470   -1.2000    0.0000 S   0  0  0  0  0  0  0  0  0  0  0  0
    2.8700    1.6830    0.0000 N   0  0  0  0  0  0  0  0  0  0  0  0
    3.6700    0.4500    0.0000 N   0  0  0  0  0  0  0  0  0  0  0  0
    2.2020    0.5270    0.0000 N   0  0  0  0  0  0  0  0  0  0  0  0
    5.1650   -0.5360    0.0000 N   0  0  0  0  0  0  0  0  0  0  0  0
    5.1650   -1.8640    0.0000 N   0  0  0  0  0  0  0  0  0  0  0  0
    2.0620    1.8540    0.0000 C   0  0  0  0  0  0  0  0  0  0  0  0
    1.6500    1.1400    0.0000 C   0  0  0  0  0  0  0  0  0  0  0  0
    2.9560    0.8620    0.0000 C   0  0  0  0  0  0  0  0  0  0  0  0
    3.6700   -0.3750    0.0000 C   0  0  0  0  0  0  0  0  0  0  0  0
    4.3850   -0.7880    0.0000 C   0  0  0  0  0  0  0  0  0  0  0  0
    4.3850   -1.6130    0.0000 C   0  0  0  0  0  0  0  0  0  0  0  0
    2.9560   -0.7880    0.0000 C   0  0  0  0  0  0  0  0  0  0  0  0
    3.6700   -2.0250    0.0000 C   0  0  0  0  0  0  0  0  0  0  0  0
    2.9560   -1.6130    0.0000 C   0  0  0  0  0  0  0  0  0  0  0  0
  1 14  1  0  0  0  0
  2  6  1  0  0  0  0
  2  7  1  0  0  0  0
  3  8  1  0  0  0  0
  3 10  1  0  0  0  0
  4 10  1  0  0  0  0
  4 11  1  0  0  0  0
  5  9  1  0  0  0  0
  5 10  2  0  0  0  0
  6 12  2  0  0  0  0
  7 13  2  0  0  0  0
  8  9  1  0  0  0  0
 11 12  1  0  0  0  0
 11 14  2  0  0  0  0
 12 13  1  0  0  0  0
 13 15  1  0  0  0  0
 14 16  1  0  0  0  0
 15 16  2  0  0  0  0
M  END
>  <DATABASE_ID>
DB00697

>  <DATABASE_NAME>
drugbank

>  <SMILES>
Clc1ccc2nsnc2c1NC=1NCCN=1

>  <INCHI_IDENTIFIER>
InChI=1S/C9H8ClN5S/c10-5-1-2-6-8(15-16-14-6)7(5)13-9-11-3-4-12-9/h1-2H,3-4H2,(H2,11,12,13)

>  <INCHI_KEY>
InChIKey=XFYDIVBRZNQMJC-UHFFFAOYSA-N

>  <JCHEM_ACCEPTOR_COUNT>
5

>  <JCHEM_AVERAGE_POLARIZABILITY>
23.967974

>  <JCHEM_BIOAVAILABILITY>
1

>  <JCHEM_DONOR_COUNT>
2

>  <JCHEM_EXACT_MASS>
253.01889

>  <JCHEM_FORMAL_CHARGE>
0

>  <JCHEM_FORMULA>
C9H8ClN5S

>  <JCHEM_GHOSE_FILTER>
1

>  <JCHEM_IUPAC>
5-chloro-N-(4,5-dihydro-1H-imidazol-2-yl)-2,1,3-benzothiadiazol-4-amine

>  <ALOGPS_LOGP>
1.6

>  <JCHEM_LOGP>
2.024673

>  <ALOGPS_LOGS>
-3.28

>  <JCHEM_MASS>
253.711

>  <JCHEM_MDDR_LIKE_RULE>
0

>  <JCHEM_NUMBER_OF_RINGS>
3

>  <JCHEM_PHYSIOLOGICAL_CHARGE>
1

>  <JCHEM_PKA_STRONGEST_BASIC>
7.4946609

>  <JCHEM_POLAR_SURFACE_AREA>
62.200001

>  <JCHEM_REFRACTIVITY>
64.766403

>  <JCHEM_ROTATABLE_BOND_COUNT>
1

>  <JCHEM_RULE_OF_FIVE>
1

>  <ALOGPS_SOLUBILITY>
1.33e-01 g/l

>  <JCHEM_TRADITIONAL_IUPAC>
tizanidine

>  <JCHEM_VEBER_RULE>
0

>  <DRUGBANK_ID>
DB00697

>  <DRUG_GROUPS>
approved

>  <GENERIC_NAME>
Tizanidine

>  <SYNONYMS>
Tizanidin; Tizanidina; Tizanidine; Tizanidinum

>  <BRANDS>
Cimbrar; Musant; Myores; Navizan; Relaxkov; Sirdalid; Sirdalud; Sirdalud MR; Sizolan; Spaslax; Telzanine; Ternelin; Tizadin; Tizaflex; Tizalud; Tizan; Zanaflex; Zanpeak; Zitanid

>  <SALTS>
Tizanidine Hydrochloride

$$$$
Nitrofurantoin
 OpenBabel02121510022D

 17 18  0  0  0  0  0  0  0  0999 V2000
    5.2850    1.2550    0.0000 O   0  0  0  0  0  0  0  0  0  0  0  0
    4.0000   -1.8430    0.0000 O   0  0  0  0  0  0  0  0  0  0  0  0
    1.6500   -0.1360    0.0000 O   0  0  0  0  0  0  0  0  0  0  0  0
    6.9930    1.4810    0.0000 O   0  5  0  0  0  0  0  0  0  0  0  0
    7.1420    0.0600    0.0000 O   0  0  0  0  0  0  0  0  0  0  0  0
    3.1020    0.0940    0.0000 N   0  0  0  0  0  0  0  0  0  0  0  0
    2.6900   -1.1760    0.0000 N   0  0  0  0  0  0  0  0  0  0  0  0
    3.1020    0.9190    0.0000 N   0  0  0  0  0  0  0  0  0  0  0  0
    6.6570    0.7280    0.0000 N   0  3  0  0  0  0  0  0  0  0  0  0
    3.7700   -0.3910    0.0000 C   0  0  0  0  0  0  0  0  0  0  0  0
    3.5150   -1.1760    0.0000 C   0  0  0  0  0  0  0  0  0  0  0  0
    2.4350   -0.3910    0.0000 C   0  0  0  0  0  0  0  0  0  0  0  0
    4.5310    0.9190    0.0000 C   0  0  0  0  0  0  0  0  0  0  0  0
    3.8170    1.3320    0.0000 C   0  0  0  0  0  0  0  0  0  0  0  0
    4.6170    0.0980    0.0000 C   0  0  0  0  0  0  0  0  0  0  0  0
    5.8370    0.6420    0.0000 C   0  0  0  0  0  0  0  0  0  0  0  0
    5.4240   -0.0730    0.0000 C   0  0  0  0  0  0  0  0  0  0  0  0
  1 13  1  0  0  0  0
  1 16  1  0  0  0  0
  2 11  2  0  0  0  0
  3 12  2  0  0  0  0
  4  9  1  0  0  0  0
  5  9  2  0  0  0  0
  6  8  1  0  0  0  0
  6 10  1  0  0  0  0
  6 12  1  0  0  0  0
  7 11  1  0  0  0  0
  7 12  1  0  0  0  0
  8 14  2  0  0  0  0
  9 16  1  0  0  0  0
 10 11  1  0  0  0  0
 13 14  1  0  0  0  0
 13 15  2  0  0  0  0
 15 17  1  0  0  0  0
 16 17  2  0  0  0  0
M  CHG  2   4  -1   9   1
M  END
>  <DATABASE_ID>
DB00698

>  <DATABASE_NAME>
drugbank

>  <SMILES>
o1c(ccc1[N+](=O)[O-])\C=N/N1CC(=O)NC1=O

>  <INCHI_IDENTIFIER>
InChI=1S/C8H6N4O5/c13-6-4-11(8(14)10-6)9-3-5-1-2-7(17-5)12(15)16/h1-3H,4H2,(H,10,13,14)/b9-3-

>  <INCHI_KEY>
InChIKey=NXFQHRVNIOXGAQ-OQFOIZHKSA-N

>  <JCHEM_ACCEPTOR_COUNT>
5

>  <JCHEM_AVERAGE_POLARIZABILITY>
19.752422

>  <JCHEM_BIOAVAILABILITY>
1

>  <JCHEM_DONOR_COUNT>
1

>  <JCHEM_EXACT_MASS>
238.03381

>  <JCHEM_FORMAL_CHARGE>
0

>  <JCHEM_FORMULA>
C8H6N4O5

>  <JCHEM_GHOSE_FILTER>
1

>  <JCHEM_IUPAC>
1-[(Z)-[(5-nitrofuran-2-yl)methylidene]amino]imidazolidine-2,4-dione

>  <ALOGPS_LOGP>
0.029999999

>  <JCHEM_LOGP>
-0.22144999

>  <ALOGPS_LOGS>
-2.76

>  <JCHEM_MASS>
238.157

>  <JCHEM_MDDR_LIKE_RULE>
0

>  <JCHEM_NUMBER_OF_RINGS>
2

>  <JCHEM_PHYSIOLOGICAL_CHARGE>
0

>  <JCHEM_PKA>
14.889071

>  <JCHEM_PKA_STRONGEST_ACIDIC>
9.2331543

>  <JCHEM_PKA_STRONGEST_BASIC>
-2.227684

>  <JCHEM_POLAR_SURFACE_AREA>
120.73

>  <JCHEM_REFRACTIVITY>
53.114101

>  <JCHEM_ROTATABLE_BOND_COUNT>
3

>  <JCHEM_RULE_OF_FIVE>
1

>  <ALOGPS_SOLUBILITY>
4.15e-01 g/l

>  <JCHEM_TRADITIONAL_IUPAC>
nitrofurantoin

>  <JCHEM_VEBER_RULE>
0

>  <DRUGBANK_ID>
DB00698

>  <DRUG_GROUPS>
approved

>  <GENERIC_NAME>
Nitrofurantoin

>  <SYNONYMS>
5-Nitrofurantoin; N-(5-Nitrofurfurylidene)-1-aminohydantoin

>  <BRANDS>
Furabid; Furadantin; Macrobid; Macrodantin; Niftran; Siraliden; Urantoin; Urolong

$$$$
Eplerenone
 OpenBabel02121510022D

 32 37  0  0  1  0  0  0  0  0999 V2000
    9.3800   -5.1870    0.0000 C   0  0  1  0  0  0  0  0  0  0  0  0
    9.3760   -6.0120    0.0000 C   0  0  2  0  0  0  0  0  0  0  0  0
   10.0930   -5.5990    0.0000 O   0  0  0  0  0  0  0  0  0  0  0  0
    7.2300   -6.4180    0.0000 C   0  0  0  0  0  0  0  0  0  0  0  0
    7.2300   -7.2440    0.0000 C   0  0  0  0  0  0  0  0  0  0  0  0
    7.9470   -7.6560    0.0000 C   0  0  0  0  0  0  0  0  0  0  0  0
    7.9470   -6.0060    0.0000 C   0  0  0  0  0  0  0  0  0  0  0  0
    8.6590   -6.4180    0.0000 C   0  0  1  0  0  0  0  0  0  0  0  0
    8.6550   -7.2440    0.0000 C   0  0  0  0  0  0  0  0  0  0  0  0
    9.3680   -7.6590    0.0000 C   0  0  0  0  0  0  0  0  0  0  0  0
   10.0840   -7.2500    0.0000 C   0  0  2  0  0  0  0  0  0  0  0  0
   10.0840   -6.4260    0.0000 C   0  0  1  0  0  0  0  0  0  0  0  0
   10.0980   -4.7800    0.0000 C   0  0  0  0  0  0  0  0  0  0  0  0
   10.8070   -5.1980    0.0000 C   0  0  1  0  0  0  0  0  0  0  0  0
   10.8010   -6.0240    0.0000 C   0  0  1  0  0  0  0  0  0  0  0  0
   11.5850   -6.2840    0.0000 C   0  0  0  0  0  0  0  0  0  0  0  0
   12.0750   -5.6190    0.0000 C   0  0  0  0  0  0  0  0  0  0  0  0
   11.5940   -4.9470    0.0000 C   0  0  2  0  0  0  0  0  0  0  0  0
   12.4180   -4.9480    0.0000 O   0  0  0  0  0  0  0  0  0  0  0  0
   12.6740   -4.1640    0.0000 C   0  0  0  0  0  0  0  0  0  0  0  0
   12.0070   -3.6790    0.0000 C   0  0  0  0  0  0  0  0  0  0  0  0
   11.3400   -4.1620    0.0000 C   0  0  0  0  0  0  0  0  0  0  0  0
   13.4580   -3.9100    0.0000 O   0  0  0  0  0  0  0  0  0  0  0  0
   10.7980   -7.6640    0.0000 C   0  0  0  0  0  0  0  0  0  0  0  0
   10.7960   -8.4890    0.0000 O   0  0  0  0  0  0  0  0  0  0  0  0
   11.5130   -7.2530    0.0000 O   0  0  0  0  0  0  0  0  0  0  0  0
   12.2270   -7.6670    0.0000 C   0  0  0  0  0  0  0  0  0  0  0  0
    6.5160   -7.6560    0.0000 O   0  0  0  0  0  0  0  0  0  0  0  0
    8.6510   -5.5940    0.0000 C   0  0  0  0  0  0  0  0  0  0  0  0
    9.3640   -6.8310    0.0000 H   0  0  0  0  0  0  0  0  0  0  0  0
   10.8010   -4.3730    0.0000 C   0  0  0  0  0  0  0  0  0  0  0  0
   10.7970   -6.8480    0.0000 H   0  0  0  0  0  0  0  0  0  0  0  0
  1  3  1  1  0  0  0
  1 13  1  0  0  0  0
  2  1  1  0  0  0  0
  2  3  1  6  0  0  0
  2  8  1  0  0  0  0
  2 12  1  0  0  0  0
  4  5  1  0  0  0  0
  4  7  1  0  0  0  0
  5  6  1  0  0  0  0
  5 28  2  0  0  0  0
  6  9  2  0  0  0  0
  7  8  1  0  0  0  0
  8  9  1  0  0  0  0
  8 29  1  1  0  0  0
  9 10  1  0  0  0  0
 10 11  1  0  0  0  0
 11 12  1  0  0  0  0
 11 24  1  6  0  0  0
 12 15  1  0  0  0  0
 12 30  1  1  0  0  0
 13 14  1  0  0  0  0
 14 15  1  0  0  0  0
 14 31  1  1  0  0  0
 15 16  1  0  0  0  0
 15 32  1  6  0  0  0
 16 17  1  0  0  0  0
 18 14  1  0  0  0  0
 18 17  1  6  0  0  0
 18 19  1  0  0  0  0
 18 22  1  0  0  0  0
 19 20  1  0  0  0  0
 20 21  1  0  0  0  0
 20 23  2  0  0  0  0
 21 22  1  0  0  0  0
 24 25  2  0  0  0  0
 24 26  1  0  0  0  0
 26 27  1  0  0  0  0
M  END
>  <DATABASE_ID>
DB00700

>  <DATABASE_NAME>
drugbank

>  <SMILES>
O1[C@@]2(CCC1=O)CC[C@H]1[C@H]3[C@@]4(O[C@@H]4C[C@@]12C)[C@@]1(C(=CC(=O)CC1)C[C@H]3C(OC)=O)C

>  <INCHI_IDENTIFIER>
InChI=1S/C24H30O6/c1-21-7-4-14(25)10-13(21)11-15(20(27)28-3)19-16-5-8-23(9-6-18(26)30-23)22(16,2)12-17-24(19,21)29-17/h10,15-17,19H,4-9,11-12H2,1-3H3/t15-,16+,17-,19+,21+,22+,23-,24-/m1/s1

>  <INCHI_KEY>
InChIKey=JUKPWJGBANNWMW-VWBFHTRKSA-N

>  <JCHEM_ACCEPTOR_COUNT>
4

>  <JCHEM_AVERAGE_POLARIZABILITY>
43.794781

>  <JCHEM_BIOAVAILABILITY>
1

>  <JCHEM_DONOR_COUNT>
0

>  <JCHEM_EXACT_MASS>
414.20422

>  <JCHEM_FORMAL_CHARGE>
0

>  <JCHEM_FORMULA>
C24H30O6

>  <JCHEM_GHOSE_FILTER>
1

>  <JCHEM_IUPAC>
methyl (1'R,2R,2'S,9'R,10'R,11'S,15'S,17'R)-2',15'-dimethyl-5,5'-dioxo-18'-oxaspiro[oxolane-2,14'-pentacyclo[8.8.0.0^{1,17}.0^{2,7}.0^{11,15}]octadecan]-6'-ene-9'-carboxylate

>  <ALOGPS_LOGP>
1.67

>  <JCHEM_LOGP>
2.3314128

>  <ALOGPS_LOGS>
-4.6599998

>  <JCHEM_MASS>
414.49139

>  <JCHEM_MDDR_LIKE_RULE>
0

>  <JCHEM_NUMBER_OF_RINGS>
6

>  <JCHEM_PHYSIOLOGICAL_CHARGE>
0

>  <JCHEM_PKA_STRONGEST_ACIDIC>
15.113572

>  <JCHEM_PKA_STRONGEST_BASIC>
-4.1836128

>  <JCHEM_POLAR_SURFACE_AREA>
82.199997

>  <JCHEM_REFRACTIVITY>
106.6777

>  <JCHEM_ROTATABLE_BOND_COUNT>
2

>  <JCHEM_RULE_OF_FIVE>
1

>  <ALOGPS_SOLUBILITY>
9.03e-03 g/l

>  <JCHEM_TRADITIONAL_IUPAC>
eplerenone

>  <JCHEM_VEBER_RULE>
0

>  <DRUGBANK_ID>
DB00700

>  <DRUG_GROUPS>
approved

>  <GENERIC_NAME>
Eplerenone

>  <SYNONYMS>
Epoxymexrenone

>  <BRANDS>
INSPRA

$$$$
Amprenavir
 OpenBabel02121510022D

 35 37  0  0  1  0  0  0  0  0999 V2000
    3.7940   -1.1930    0.0000 S   0  0  0  0  0  0  0  0  0  0  0  0
    3.7940    1.2820    0.0000 O   0  0  0  0  0  0  0  0  0  0  0  0
    4.5080    3.3440    0.0000 O   0  0  0  0  0  0  0  0  0  0  0  0
    2.4880    4.0350    0.0000 O   0  0  0  0  0  0  0  0  0  0  0  0
    2.9680   -1.1930    0.0000 O   0  0  0  0  0  0  0  0  0  0  0  0
    4.6180   -1.1930    0.0000 O   0  0  0  0  0  0  0  0  0  0  0  0
    3.7940    2.1070    0.0000 O   0  0  0  0  0  0  0  0  0  0  0  0
    3.7940   -0.3680    0.0000 N   0  0  0  0  0  0  0  0  0  0  0  0
    5.2220    2.1070    0.0000 N   0  0  0  0  0  0  0  0  0  0  0  0
    3.7940   -4.4930    0.0000 N   0  0  0  0  0  0  0  0  0  0  0  0
    4.5080    0.8690    0.0000 C   0  0  1  0  0  0  0  0  0  0  0  0
    5.2220    1.2820    0.0000 C   0  0  2  0  0  0  0  0  0  0  0  0
    4.5080    0.0440    0.0000 C   0  0  0  0  0  0  0  0  0  0  0  0
    3.0790    0.0440    0.0000 C   0  0  0  0  0  0  0  0  0  0  0  0
    5.9370    0.8690    0.0000 C   0  0  0  0  0  0  0  0  0  0  0  0
    2.3640   -0.3680    0.0000 C   0  0  0  0  0  0  0  0  0  0  0  0
    3.7940    3.7570    0.0000 C   0  0  1  0  0  0  0  0  0  0  0  0
    6.6520    1.2820    0.0000 C   0  0  0  0  0  0  0  0  0  0  0  0
    2.3640   -1.1930    0.0000 C   0  0  0  0  0  0  0  0  0  0  0  0
    1.6500    0.0440    0.0000 C   0  0  0  0  0  0  0  0  0  0  0  0
    3.7070    4.5770    0.0000 C   0  0  0  0  0  0  0  0  0  0  0  0
    3.7940   -2.0180    0.0000 C   0  0  0  0  0  0  0  0  0  0  0  0
    3.0400    3.4210    0.0000 C   0  0  0  0  0  0  0  0  0  0  0  0
    4.5080    2.5190    0.0000 C   0  0  0  0  0  0  0  0  0  0  0  0
    2.9000    4.7490    0.0000 C   0  0  0  0  0  0  0  0  0  0  0  0
    6.6520    2.1070    0.0000 C   0  0  0  0  0  0  0  0  0  0  0  0
    7.3660    0.8690    0.0000 C   0  0  0  0  0  0  0  0  0  0  0  0
    3.0790   -2.4310    0.0000 C   0  0  0  0  0  0  0  0  0  0  0  0
    4.5080   -2.4310    0.0000 C   0  0  0  0  0  0  0  0  0  0  0  0
    7.3660    2.5190    0.0000 C   0  0  0  0  0  0  0  0  0  0  0  0
    8.0800    1.2820    0.0000 C   0  0  0  0  0  0  0  0  0  0  0  0
    3.0790   -3.2560    0.0000 C   0  0  0  0  0  0  0  0  0  0  0  0
    4.5080   -3.2560    0.0000 C   0  0  0  0  0  0  0  0  0  0  0  0
    3.7940   -3.6680    0.0000 C   0  0  0  0  0  0  0  0  0  0  0  0
    8.0800    2.1070    0.0000 C   0  0  0  0  0  0  0  0  0  0  0  0
  1  5  2  0  0  0  0
  1  6  2  0  0  0  0
  1  8  1  0  0  0  0
  1 22  1  0  0  0  0
  3 24  1  0  0  0  0
  4 23  1  0  0  0  0
  4 25  1  0  0  0  0
  7 24  2  0  0  0  0
  8 13  1  0  0  0  0
  8 14  1  0  0  0  0
  9 24  1  0  0  0  0
 10 34  1  0  0  0  0
 11  2  1  1  0  0  0
 11 12  1  0  0  0  0
 11 13  1  0  0  0  0
 12  9  1  1  0  0  0
 12 15  1  0  0  0  0
 14 16  1  0  0  0  0
 15 18  1  0  0  0  0
 16 19  1  0  0  0  0
 16 20  1  0  0  0  0
 17  3  1  6  0  0  0
 17 21  1  0  0  0  0
 17 23  1  0  0  0  0
 18 26  2  0  0  0  0
 18 27  1  0  0  0  0
 21 25  1  0  0  0  0
 22 28  1  0  0  0  0
 22 29  2  0  0  0  0
 26 30  1  0  0  0  0
 27 31  2  0  0  0  0
 28 32  2  0  0  0  0
 29 33  1  0  0  0  0
 30 35  2  0  0  0  0
 31 35  1  0  0  0  0
 32 34  1  0  0  0  0
 33 34  2  0  0  0  0
M  END
>  <DATABASE_ID>
DB00701

>  <DATABASE_NAME>
drugbank

>  <SMILES>
S(=O)(=O)(N(CC(C)C)C[C@@H](O)[C@@H](NC(O[C@H]1CCOC1)=O)Cc1ccccc1)c1ccc(N)cc1

>  <INCHI_IDENTIFIER>
InChI=1S/C25H35N3O6S/c1-18(2)15-28(35(31,32)22-10-8-20(26)9-11-22)16-24(29)23(14-19-6-4-3-5-7-19)27-25(30)34-21-12-13-33-17-21/h3-11,18,21,23-24,29H,12-17,26H2,1-2H3,(H,27,30)/t21-,23-,24+/m0/s1

>  <INCHI_KEY>
InChIKey=YMARZQAQMVYCKC-OEMFJLHTSA-N

>  <JCHEM_ACCEPTOR_COUNT>
6

>  <JCHEM_AVERAGE_POLARIZABILITY>
53.60424

>  <JCHEM_BIOAVAILABILITY>
0

>  <JCHEM_DONOR_COUNT>
3

>  <JCHEM_EXACT_MASS>
505.22467

>  <JCHEM_FORMAL_CHARGE>
0

>  <JCHEM_FORMULA>
C25H35N3O6S

>  <JCHEM_GHOSE_FILTER>
0

>  <JCHEM_IUPAC>
(3S)-oxolan-3-yl N-[(2S,3R)-3-hydroxy-4-[N-(2-methylpropyl)(4-aminobenzene)sulfonamido]-1-phenylbutan-2-yl]carbamate

>  <ALOGPS_LOGP>
1.85

>  <JCHEM_LOGP>
2.4269526

>  <ALOGPS_LOGS>
-4.0100002

>  <JCHEM_MASS>
505.62701

>  <JCHEM_MDDR_LIKE_RULE>
1

>  <JCHEM_NUMBER_OF_RINGS>
3

>  <JCHEM_PHYSIOLOGICAL_CHARGE>
0

>  <JCHEM_PKA>
14.241567

>  <JCHEM_PKA_STRONGEST_ACIDIC>
13.614255

>  <JCHEM_PKA_STRONGEST_BASIC>
2.3863099

>  <JCHEM_POLAR_SURFACE_AREA>
131.19

>  <JCHEM_REFRACTIVITY>
134.0815

>  <JCHEM_ROTATABLE_BOND_COUNT>
11

>  <JCHEM_RULE_OF_FIVE>
0

>  <ALOGPS_SOLUBILITY>
4.91e-02 g/l

>  <JCHEM_TRADITIONAL_IUPAC>
amprenavir

>  <JCHEM_VEBER_RULE>
0

>  <DRUGBANK_ID>
DB00701

>  <DRUG_GROUPS>
approved

>  <GENERIC_NAME>
Amprenavir

>  <SYNONYMS>
Amprenavir; Amprénavir; Amprenavirum

>  <BRANDS>
Agemerase; Agenerase; Prozei

$$$$
Methazolamide
 OpenBabel02121510022D

 14 14  0  0  0  0  0  0  0  0999 V2000
    2.6440    0.8140    0.0000 S   0  0  0  0  0  0  0  0  0  0  0  0
    3.9540    0.1460    0.0000 S   0  0  0  0  0  0  0  0  0  0  0  0
    1.9760    0.3290    0.0000 O   0  0  0  0  0  0  0  0  0  0  0  0
    3.3110    1.2990    0.0000 O   0  0  0  0  0  0  0  0  0  0  0  0
    5.4350    0.4660    0.0000 O   0  0  0  0  0  0  0  0  0  0  0  0
    3.5410   -1.1230    0.0000 N   0  0  0  0  0  0  0  0  0  0  0  0
    2.8740   -0.6380    0.0000 N   0  0  0  0  0  0  0  0  0  0  0  0
    2.1590    1.4810    0.0000 N   0  0  0  0  0  0  0  0  0  0  0  0
    4.9930   -0.8930    0.0000 N   0  0  0  0  0  0  0  0  0  0  0  0
    3.1290    0.1460    0.0000 C   0  0  0  0  0  0  0  0  0  0  0  0
    4.2090   -0.6380    0.0000 C   0  0  0  0  0  0  0  0  0  0  0  0
    3.5410   -1.9480    0.0000 C   0  0  0  0  0  0  0  0  0  0  0  0
    5.6060   -0.3410    0.0000 C   0  0  0  0  0  0  0  0  0  0  0  0
    6.3910   -0.5960    0.0000 C   0  0  0  0  0  0  0  0  0  0  0  0
  1  3  2  0  0  0  0
  1  4  2  0  0  0  0
  1  8  1  0  0  0  0
  1 10  1  0  0  0  0
  2 10  1  0  0  0  0
  2 11  1  0  0  0  0
  5 13  2  0  0  0  0
  6  7  1  0  0  0  0
  6 11  1  0  0  0  0
  6 12  1  0  0  0  0
  7 10  2  0  0  0  0
  9 11  2  0  0  0  0
  9 13  1  0  0  0  0
 13 14  1  0  0  0  0
M  END
>  <DATABASE_ID>
DB00703

>  <DATABASE_NAME>
drugbank

>  <SMILES>
S1\C(=N/C(=O)C)\N(N=C1S(=O)(=O)N)C

>  <INCHI_IDENTIFIER>
InChI=1S/C5H8N4O3S2/c1-3(10)7-4-9(2)8-5(13-4)14(6,11)12/h1-2H3,(H2,6,11,12)/b7-4-

>  <INCHI_KEY>
InChIKey=FLOSMHQXBMRNHR-DAXSKMNVSA-N

>  <JCHEM_ACCEPTOR_COUNT>
6

>  <JCHEM_AVERAGE_POLARIZABILITY>
21.170021

>  <JCHEM_BIOAVAILABILITY>
1

>  <JCHEM_DONOR_COUNT>
1

>  <JCHEM_EXACT_MASS>
236.00378

>  <JCHEM_FORMAL_CHARGE>
0

>  <JCHEM_FORMULA>
C5H8N4O3S2

>  <JCHEM_GHOSE_FILTER>
0

>  <JCHEM_IUPAC>
N-[(2Z)-3-methyl-5-sulfamoyl-2,3-dihydro-1,3,4-thiadiazol-2-ylidene]acetamide

>  <ALOGPS_LOGP>
-0.2

>  <JCHEM_LOGP>
-0.59343314

>  <ALOGPS_LOGS>
-2.1300001

>  <JCHEM_MASS>
236.272

>  <JCHEM_MDDR_LIKE_RULE>
0

>  <JCHEM_NUMBER_OF_RINGS>
1

>  <JCHEM_PHYSIOLOGICAL_CHARGE>
0

>  <JCHEM_PKA>
19.433884

>  <JCHEM_PKA_STRONGEST_ACIDIC>
10.058322

>  <JCHEM_PKA_STRONGEST_BASIC>
-3.6404576

>  <JCHEM_POLAR_SURFACE_AREA>
105.19

>  <JCHEM_REFRACTIVITY>
51.2971

>  <JCHEM_ROTATABLE_BOND_COUNT>
1

>  <JCHEM_RULE_OF_FIVE>
1

>  <ALOGPS_SOLUBILITY>
1.74e+00 g/l

>  <JCHEM_TRADITIONAL_IUPAC>
methazolamide

>  <JCHEM_VEBER_RULE>
0

>  <DRUGBANK_ID>
DB00703

>  <DRUG_GROUPS>
approved

>  <GENERIC_NAME>
Methazolamide

>  <SYNONYMS>
Metazolamida; Methazolamid; Méthazolamide; Methazolamidum

>  <BRANDS>
Methazolamide; Naptazane; Neptazane

$$$$
Naltrexone
 OpenBabel02121510022D

 27 32  0  0  1  0  0  0  0  0999 V2000
    1.9360   -0.2230    0.0000 O   0  0  0  0  0  0  0  0  0  0  0  0
    4.4730   -1.7580    0.0000 O   0  0  0  0  0  0  0  0  0  0  0  0
    1.7350   -2.3530    0.0000 O   0  0  0  0  0  0  0  0  0  0  0  0
    1.7350    1.8150    0.0000 O   0  0  0  0  0  0  0  0  0  0  0  0
    5.3440   -1.0940    0.0000 N   0  0  0  0  0  0  0  0  0  0  0  0
    3.2010   -0.6810    0.0000 C   0  0  1  0  0  0  0  0  0  0  0  0
    3.9150   -1.0940    0.0000 C   0  0  1  0  0  0  0  0  0  0  0  0
    4.6300   -0.6810    0.0000 C   0  0  1  0  0  0  0  0  0  0  0  0
    2.4860   -1.0940    0.0000 C   0  0  2  0  0  0  0  0  0  0  0  0
    3.6770   -0.0760    0.0000 C   0  0  0  0  0  0  0  0  0  0  0  0
    3.2010    0.1440    0.0000 C   0  0  0  0  0  0  0  0  0  0  0  0
    3.9150   -1.9190    0.0000 C   0  0  0  0  0  0  0  0  0  0  0  0
    4.8510   -0.0760    0.0000 C   0  0  0  0  0  0  0  0  0  0  0  0
    4.6300    0.1440    0.0000 C   0  0  0  0  0  0  0  0  0  0  0  0
    3.9150    0.5560    0.0000 C   0  0  0  0  0  0  0  0  0  0  0  0
    5.9350   -1.7290    0.0000 C   0  0  0  0  0  0  0  0  0  0  0  0
    3.2010   -2.3320    0.0000 C   0  0  0  0  0  0  0  0  0  0  0  0
    6.7800   -1.5350    0.0000 C   0  0  0  0  0  0  0  0  0  0  0  0
    2.4860   -1.9190    0.0000 C   0  0  0  0  0  0  0  0  0  0  0  0
    2.4860    0.5560    0.0000 C   0  0  0  0  0  0  0  0  0  0  0  0
    7.6100   -1.7890    0.0000 C   0  0  0  0  0  0  0  0  0  0  0  0
    7.4160   -0.9440    0.0000 C   0  0  0  0  0  0  0  0  0  0  0  0
    3.9150    1.3810    0.0000 C   0  0  0  0  0  0  0  0  0  0  0  0
    2.4860    1.3810    0.0000 C   0  0  0  0  0  0  0  0  0  0  0  0
    3.2010    1.7940    0.0000 C   0  0  0  0  0  0  0  0  0  0  0  0
    4.8680   -1.3330    0.0000 H   0  0  0  0  0  0  0  0  0  0  0  0
    1.8200   -1.2870    0.0000 H   0  0  0  0  0  0  0  0  0  0  0  0
  1  9  1  0  0  0  0
  1 20  1  0  0  0  0
  3 19  2  0  0  0  0
  4 24  1  0  0  0  0
  5  8  1  0  0  0  0
  5 13  1  0  0  0  0
  5 16  1  0  0  0  0
  6  7  1  0  0  0  0
  6  9  1  0  0  0  0
  6 10  1  1  0  0  0
  6 11  1  0  0  0  0
  7  2  1  1  0  0  0
  7  8  1  0  0  0  0
  7 12  1  0  0  0  0
  8 14  1  0  0  0  0
  8 26  1  6  0  0  0
  9 19  1  0  0  0  0
  9 27  1  1  0  0  0
 10 13  1  0  0  0  0
 11 15  1  0  0  0  0
 11 20  2  0  0  0  0
 12 17  1  0  0  0  0
 14 15  1  0  0  0  0
 15 23  2  0  0  0  0
 16 18  1  0  0  0  0
 17 19  1  0  0  0  0
 18 21  1  0  0  0  0
 18 22  1  0  0  0  0
 20 24  1  0  0  0  0
 21 22  1  0  0  0  0
 23 25  1  0  0  0  0
 24 25  2  0  0  0  0
M  END
>  <DATABASE_ID>
DB00704

>  <DATABASE_NAME>
drugbank

>  <SMILES>
O1[C@@H]2[C@]34CCN([C@H](Cc5c3c1c(O)cc5)[C@]4(O)CCC2=O)CC1CC1

>  <INCHI_IDENTIFIER>
InChI=1S/C20H23NO4/c22-13-4-3-12-9-15-20(24)6-5-14(23)18-19(20,16(12)17(13)25-18)7-8-21(15)10-11-1-2-11/h3-4,11,15,18,22,24H,1-2,5-10H2/t15-,18+,19+,20-/m1/s1

>  <INCHI_KEY>
InChIKey=DQCKKXVULJGBQN-XFWGSAIBSA-N

>  <JCHEM_ACCEPTOR_COUNT>
5

>  <JCHEM_AVERAGE_POLARIZABILITY>
35.967037

>  <JCHEM_BIOAVAILABILITY>
1

>  <JCHEM_DONOR_COUNT>
2

>  <JCHEM_EXACT_MASS>
341.16272

>  <JCHEM_FORMAL_CHARGE>
0

>  <JCHEM_FORMULA>
C20H23NO4

>  <JCHEM_GHOSE_FILTER>
1

>  <JCHEM_IUPAC>
(1S,5R,13R,17S)-4-(cyclopropylmethyl)-10,17-dihydroxy-12-oxa-4-azapentacyclo[9.6.1.0^{1,13}.0^{5,17}.0^{7,18}]octadeca-7(18),8,10-trien-14-one

>  <ALOGPS_LOGP>
2.0699999

>  <JCHEM_LOGP>
1.3626752

>  <ALOGPS_LOGS>
-2.05

>  <JCHEM_MASS>
341.40091

>  <JCHEM_MDDR_LIKE_RULE>
0

>  <JCHEM_NUMBER_OF_RINGS>
6

>  <JCHEM_PHYSIOLOGICAL_CHARGE>
1

>  <JCHEM_PKA>
13.58074

>  <JCHEM_PKA_STRONGEST_ACIDIC>
7.3919272

>  <JCHEM_PKA_STRONGEST_BASIC>
11.537658

>  <JCHEM_POLAR_SURFACE_AREA>
70

>  <JCHEM_REFRACTIVITY>
91.501503

>  <JCHEM_ROTATABLE_BOND_COUNT>
2

>  <JCHEM_RULE_OF_FIVE>
1

>  <ALOGPS_SOLUBILITY>
3.07e+00 g/l

>  <JCHEM_TRADITIONAL_IUPAC>
naltrexone

>  <JCHEM_VEBER_RULE>
0

>  <DRUGBANK_ID>
DB00704

>  <DRUG_GROUPS>
approved; investigational

>  <GENERIC_NAME>
Naltrexone

>  <SYNONYMS>
Naltrexon; Naltrexona; Naltrexone; Naltrexonum

>  <BRANDS>
Abernil; Adepend; Antaxon; Antaxone; Arrop; Depade; Dependex; Nalerona; Nalorex; Naltax; Naltrekson; Narcoral; Neksi; Nemexin; Opizone; Revez; Revia; Trexan; Vivitrol

>  <SALTS>
Naltrexone Hydrochloride

$$$$
Delavirdine
 OpenBabel02121510022D

 32 35  0  0  0  0  0  0  0  0999 V2000
    2.3640    1.5130    0.0000 S   0  0  0  0  0  0  0  0  0  0  0  0
    7.7220    2.6400    0.0000 O   0  0  0  0  0  0  0  0  0  0  0  0
    2.7770    2.2280    0.0000 O   0  0  0  0  0  0  0  0  0  0  0  0
    1.9520    0.7990    0.0000 O   0  0  0  0  0  0  0  0  0  0  0  0
    8.5470   -0.2180    0.0000 N   0  0  0  0  0  0  0  0  0  0  0  0
    7.7220    1.2110    0.0000 N   0  0  0  0  0  0  0  0  0  0  0  0
    6.0030    2.5900    0.0000 N   0  0  0  0  0  0  0  0  0  0  0  0
    7.7220   -1.6470    0.0000 N   0  0  0  0  0  0  0  0  0  0  0  0
    9.7850   -0.9320    0.0000 N   0  0  0  0  0  0  0  0  0  0  0  0
    3.0790    1.1010    0.0000 N   0  0  0  0  0  0  0  0  0  0  0  0
    8.9600    0.4970    0.0000 C   0  0  0  0  0  0  0  0  0  0  0  0
    7.7220   -0.2180    0.0000 C   0  0  0  0  0  0  0  0  0  0  0  0
    8.5470    1.2110    0.0000 C   0  0  0  0  0  0  0  0  0  0  0  0
    7.3100    0.4970    0.0000 C   0  0  0  0  0  0  0  0  0  0  0  0
    8.9600   -0.9320    0.0000 C   0  0  0  0  0  0  0  0  0  0  0  0
    7.3100    1.9260    0.0000 C   0  0  0  0  0  0  0  0  0  0  0  0
    6.4850    1.9260    0.0000 C   0  0  0  0  0  0  0  0  0  0  0  0
    8.5470   -1.6470    0.0000 C   0  0  0  0  0  0  0  0  0  0  0  0
    6.0030    1.2620    0.0000 C   0  0  0  0  0  0  0  0  0  0  0  0
    5.2220    1.5130    0.0000 C   0  0  0  0  0  0  0  0  0  0  0  0
    5.2220    2.3380    0.0000 C   0  0  0  0  0  0  0  0  0  0  0  0
    7.3100   -2.3610    0.0000 C   0  0  0  0  0  0  0  0  0  0  0  0
    8.9600   -2.3610    0.0000 C   0  0  0  0  0  0  0  0  0  0  0  0
    4.5080    1.1010    0.0000 C   0  0  0  0  0  0  0  0  0  0  0  0
    4.5080    2.7510    0.0000 C   0  0  0  0  0  0  0  0  0  0  0  0
   10.1970   -1.6470    0.0000 C   0  0  0  0  0  0  0  0  0  0  0  0
    3.7940    1.5130    0.0000 C   0  0  0  0  0  0  0  0  0  0  0  0
    9.7850   -2.3610    0.0000 C   0  0  0  0  0  0  0  0  0  0  0  0
    3.7940    2.3380    0.0000 C   0  0  0  0  0  0  0  0  0  0  0  0
    6.4850   -2.3610    0.0000 C   0  0  0  0  0  0  0  0  0  0  0  0
    7.7220   -3.0760    0.0000 C   0  0  0  0  0  0  0  0  0  0  0  0
    1.6500    1.9260    0.0000 C   0  0  0  0  0  0  0  0  0  0  0  0
  1  3  2  0  0  0  0
  1  4  2  0  0  0  0
  1 10  1  0  0  0  0
  1 32  1  0  0  0  0
  2 16  2  0  0  0  0
  5 11  1  0  0  0  0
  5 12  1  0  0  0  0
  5 15  1  0  0  0  0
  6 13  1  0  0  0  0
  6 14  1  0  0  0  0
  6 16  1  0  0  0  0
  7 17  1  0  0  0  0
  7 21  1  0  0  0  0
  8 18  1  0  0  0  0
  8 22  1  0  0  0  0
  9 15  1  0  0  0  0
  9 26  2  0  0  0  0
 10 27  1  0  0  0  0
 11 13  1  0  0  0  0
 12 14  1  0  0  0  0
 15 18  2  0  0  0  0
 16 17  1  0  0  0  0
 17 19  2  0  0  0  0
 18 23  1  0  0  0  0
 19 20  1  0  0  0  0
 20 21  2  0  0  0  0
 20 24  1  0  0  0  0
 21 25  1  0  0  0  0
 22 30  1  0  0  0  0
 22 31  1  0  0  0  0
 23 28  2  0  0  0  0
 24 27  2  0  0  0  0
 25 29  2  0  0  0  0
 26 28  1  0  0  0  0
 27 29  1  0  0  0  0
M  END
>  <DATABASE_ID>
DB00705

>  <DATABASE_NAME>
drugbank

>  <SMILES>
S(=O)(=O)(Nc1cc2cc([nH]c2cc1)C(=O)N1CCN(CC1)c1ncccc1NC(C)C)C

>  <INCHI_IDENTIFIER>
InChI=1S/C22H28N6O3S/c1-15(2)24-19-5-4-8-23-21(19)27-9-11-28(12-10-27)22(29)20-14-16-13-17(26-32(3,30)31)6-7-18(16)25-20/h4-8,13-15,24-26H,9-12H2,1-3H3

>  <INCHI_KEY>
InChIKey=WHBIGIKBNXZKFE-UHFFFAOYSA-N

>  <JCHEM_ACCEPTOR_COUNT>
6

>  <JCHEM_AVERAGE_POLARIZABILITY>
50.014297

>  <JCHEM_BIOAVAILABILITY>
1

>  <JCHEM_DONOR_COUNT>
3

>  <JCHEM_EXACT_MASS>
456.19437

>  <JCHEM_FORMAL_CHARGE>
0

>  <JCHEM_FORMULA>
C22H28N6O3S

>  <JCHEM_GHOSE_FILTER>
1

>  <JCHEM_IUPAC>
N-{2-[(4-{3-[(propan-2-yl)amino]pyridin-2-yl}piperazin-1-yl)carbonyl]-1H-indol-5-yl}methanesulfonamide

>  <ALOGPS_LOGP>
2.77

>  <JCHEM_LOGP>
1.0243266

>  <ALOGPS_LOGS>
-3.73

>  <JCHEM_MASS>
456.561

>  <JCHEM_MDDR_LIKE_RULE>
0

>  <JCHEM_NUMBER_OF_RINGS>
4

>  <JCHEM_PHYSIOLOGICAL_CHARGE>
0

>  <JCHEM_PKA>
12.406612

>  <JCHEM_PKA_STRONGEST_ACIDIC>
9.3921623

>  <JCHEM_PKA_STRONGEST_BASIC>
6.8153338

>  <JCHEM_POLAR_SURFACE_AREA>
110.43

>  <JCHEM_REFRACTIVITY>
126.6434

>  <JCHEM_ROTATABLE_BOND_COUNT>
5

>  <JCHEM_RULE_OF_FIVE>
1

>  <ALOGPS_SOLUBILITY>
8.60e-02 g/l

>  <JCHEM_TRADITIONAL_IUPAC>
delavirdine

>  <JCHEM_VEBER_RULE>
0

>  <DRUGBANK_ID>
DB00705

>  <DRUG_GROUPS>
approved

>  <GENERIC_NAME>
Delavirdine

>  <SYNONYMS>
Delavirdin; Delavirdina; Delavirdine; Delavirdinum

>  <BRANDS>
Rescriptor

>  <SALTS>
Delavirdine mesylate

$$$$
Tamsulosin
 OpenBabel02121510022D

 28 29  0  0  1  0  0  0  0  0999 V2000
    3.7940    3.7910    0.0000 S   0  0  0  0  0  0  0  0  0  0  0  0
    6.6520   -1.9840    0.0000 O   0  0  0  0  0  0  0  0  0  0  0  0
    2.3640    2.9660    0.0000 O   0  0  0  0  0  0  0  0  0  0  0  0
    2.9680    3.7910    0.0000 O   0  0  0  0  0  0  0  0  0  0  0  0
    4.6180    3.7910    0.0000 O   0  0  0  0  0  0  0  0  0  0  0  0
    6.6520   -3.6340    0.0000 O   0  0  0  0  0  0  0  0  0  0  0  0
    5.9370    0.0780    0.0000 N   0  0  0  0  0  0  0  0  0  0  0  0
    3.7940    4.6160    0.0000 N   0  0  0  0  0  0  0  0  0  0  0  0
    5.2220    0.4910    0.0000 C   0  0  1  0  0  0  0  0  0  0  0  0
    5.2220    1.3160    0.0000 C   0  0  0  0  0  0  0  0  0  0  0  0
    4.5080    1.7280    0.0000 C   0  0  0  0  0  0  0  0  0  0  0  0
    4.5080    0.0780    0.0000 C   0  0  0  0  0  0  0  0  0  0  0  0
    5.9370   -0.7470    0.0000 C   0  0  0  0  0  0  0  0  0  0  0  0
    4.5080    2.5530    0.0000 C   0  0  0  0  0  0  0  0  0  0  0  0
    3.7940    2.9660    0.0000 C   0  0  0  0  0  0  0  0  0  0  0  0
    3.7940    1.3160    0.0000 C   0  0  0  0  0  0  0  0  0  0  0  0
    6.6520   -1.1590    0.0000 C   0  0  0  0  0  0  0  0  0  0  0  0
    3.0790    2.5530    0.0000 C   0  0  0  0  0  0  0  0  0  0  0  0
    3.0790    1.7280    0.0000 C   0  0  0  0  0  0  0  0  0  0  0  0
    7.3660   -2.3970    0.0000 C   0  0  0  0  0  0  0  0  0  0  0  0
    7.3660   -3.2220    0.0000 C   0  0  0  0  0  0  0  0  0  0  0  0
    8.0800   -1.9840    0.0000 C   0  0  0  0  0  0  0  0  0  0  0  0
    1.6500    2.5530    0.0000 C   0  0  0  0  0  0  0  0  0  0  0  0
    8.0800   -3.6340    0.0000 C   0  0  0  0  0  0  0  0  0  0  0  0
    8.7950   -2.3970    0.0000 C   0  0  0  0  0  0  0  0  0  0  0  0
    8.7950   -3.2220    0.0000 C   0  0  0  0  0  0  0  0  0  0  0  0
    6.6520   -4.4590    0.0000 C   0  0  0  0  0  0  0  0  0  0  0  0
    5.9370   -4.8720    0.0000 C   0  0  0  0  0  0  0  0  0  0  0  0
  1  4  2  0  0  0  0
  1  5  2  0  0  0  0
  1  8  1  0  0  0  0
  1 15  1  0  0  0  0
  2 17  1  0  0  0  0
  2 20  1  0  0  0  0
  3 18  1  0  0  0  0
  3 23  1  0  0  0  0
  6 21  1  0  0  0  0
  6 27  1  0  0  0  0
  7 13  1  0  0  0  0
  9  7  1  6  0  0  0
  9 10  1  0  0  0  0
  9 12  1  0  0  0  0
 10 11  1  0  0  0  0
 11 14  1  0  0  0  0
 11 16  2  0  0  0  0
 13 17  1  0  0  0  0
 14 15  2  0  0  0  0
 15 18  1  0  0  0  0
 16 19  1  0  0  0  0
 18 19  2  0  0  0  0
 20 21  1  0  0  0  0
 20 22  2  0  0  0  0
 21 24  2  0  0  0  0
 22 25  1  0  0  0  0
 24 26  1  0  0  0  0
 25 26  2  0  0  0  0
 27 28  1  0  0  0  0
M  END
>  <DATABASE_ID>
DB00706

>  <DATABASE_NAME>
drugbank

>  <SMILES>
S(=O)(=O)(N)c1cc(ccc1OC)C[C@H](NCCOc1ccccc1OCC)C

>  <INCHI_IDENTIFIER>
InChI=1S/C20H28N2O5S/c1-4-26-17-7-5-6-8-18(17)27-12-11-22-15(2)13-16-9-10-19(25-3)20(14-16)28(21,23)24/h5-10,14-15,22H,4,11-13H2,1-3H3,(H2,21,23,24)/t15-/m1/s1

>  <INCHI_KEY>
InChIKey=DRHKJLXJIQTDTD-OAHLLOKOSA-N

>  <JCHEM_ACCEPTOR_COUNT>
6

>  <JCHEM_AVERAGE_POLARIZABILITY>
43.952057

>  <JCHEM_BIOAVAILABILITY>
1

>  <JCHEM_DONOR_COUNT>
2

>  <JCHEM_EXACT_MASS>
408.17191

>  <JCHEM_FORMAL_CHARGE>
0

>  <JCHEM_FORMULA>
C20H28N2O5S

>  <JCHEM_GHOSE_FILTER>
1

>  <JCHEM_IUPAC>
5-[(2R)-2-{[2-(2-ethoxyphenoxy)ethyl]amino}propyl]-2-methoxybenzene-1-sulfonamide

>  <ALOGPS_LOGP>
3.05

>  <JCHEM_LOGP>
2.0381141

>  <ALOGPS_LOGS>
-4.79

>  <JCHEM_MASS>
408.51199

>  <JCHEM_MDDR_LIKE_RULE>
0

>  <JCHEM_NUMBER_OF_RINGS>
2

>  <JCHEM_PHYSIOLOGICAL_CHARGE>
1

>  <JCHEM_PKA_STRONGEST_ACIDIC>
9.9326563

>  <JCHEM_PKA_STRONGEST_BASIC>
9.2848101

>  <JCHEM_POLAR_SURFACE_AREA>
99.879997

>  <JCHEM_REFRACTIVITY>
108.8649

>  <JCHEM_ROTATABLE_BOND_COUNT>
11

>  <JCHEM_RULE_OF_FIVE>
1

>  <ALOGPS_SOLUBILITY>
6.55e-03 g/l

>  <JCHEM_TRADITIONAL_IUPAC>
tamsulosin

>  <JCHEM_VEBER_RULE>
0

>  <DRUGBANK_ID>
DB00706

>  <DRUG_GROUPS>
approved; investigational

>  <GENERIC_NAME>
Tamsulosin

>  <SYNONYMS>
Tamsulosin; Tamsulosina; Tamsulosine; Tamsulosinum

>  <BRANDS>
Betamsal; Contiflo XL; Flomax; Flomaxtra; Harnal D; Maxrin; Mecir; Omexel; Omipro; Omix; Omnic; Pradif; Ranomax; Salover; Secotex; Stronazon; Tamsact; Tamsol; Tamsul; Urimax

>  <SALTS>
Tamsulosin Hydrochloride

$$$$
Lamivudine
 OpenBabel02121510022D

 15 16  0  0  1  0  0  0  0  0999 V2000
    2.6660   -1.4950    0.0000 S   0  0  0  0  0  0  0  0  0  0  0  0
    3.7460   -0.7110    0.0000 O   0  0  0  0  0  0  0  0  0  0  0  0
    3.6410   -2.9160    0.0000 O   0  0  0  0  0  0  0  0  0  0  0  0
    1.6500    0.5990    0.0000 O   0  0  0  0  0  0  0  0  0  0  0  0
    3.0790    0.5990    0.0000 N   0  0  0  0  0  0  0  0  0  0  0  0
    2.3640    1.8370    0.0000 N   0  0  0  0  0  0  0  0  0  0  0  0
    3.0790    3.0740    0.0000 N   0  0  0  0  0  0  0  0  0  0  0  0
    3.0790   -0.2260    0.0000 C   0  0  2  0  0  0  0  0  0  0  0  0
    2.4120   -0.7110    0.0000 C   0  0  0  0  0  0  0  0  0  0  0  0
    3.4920   -1.4950    0.0000 C   0  0  1  0  0  0  0  0  0  0  0  0
    3.9760   -2.1630    0.0000 C   0  0  0  0  0  0  0  0  0  0  0  0
    3.7940    1.0120    0.0000 C   0  0  0  0  0  0  0  0  0  0  0  0
    2.3640    1.0120    0.0000 C   0  0  0  0  0  0  0  0  0  0  0  0
    3.7940    1.8370    0.0000 C   0  0  0  0  0  0  0  0  0  0  0  0
    3.0790    2.2490    0.0000 C   0  0  0  0  0  0  0  0  0  0  0  0
  1  9  1  0  0  0  0
  1 10  1  0  0  0  0
  2  8  1  0  0  0  0
  2 10  1  0  0  0  0
  3 11  1  0  0  0  0
  4 13  2  0  0  0  0
  5 12  1  0  0  0  0
  5 13  1  0  0  0  0
  6 13  1  0  0  0  0
  6 15  2  0  0  0  0
  7 15  1  0  0  0  0
  8  5  1  1  0  0  0
  8  9  1  0  0  0  0
 10 11  1  1  0  0  0
 12 14  2  0  0  0  0
 14 15  1  0  0  0  0
M  END
>  <DATABASE_ID>
DB00709

>  <DATABASE_NAME>
drugbank

>  <SMILES>
S1C[C@H](O[C@H]1CO)N1C=CC(=NC1=O)N

>  <INCHI_IDENTIFIER>
InChI=1S/C8H11N3O3S/c9-5-1-2-11(8(13)10-5)6-4-15-7(3-12)14-6/h1-2,6-7,12H,3-4H2,(H2,9,10,13)/t6-,7+/m0/s1

>  <INCHI_KEY>
InChIKey=JTEGQNOMFQHVDC-NKWVEPMBSA-N

>  <JCHEM_ACCEPTOR_COUNT>
5

>  <JCHEM_AVERAGE_POLARIZABILITY>
21.699863

>  <JCHEM_BIOAVAILABILITY>
1

>  <JCHEM_DONOR_COUNT>
2

>  <JCHEM_EXACT_MASS>
229.05211

>  <JCHEM_FORMAL_CHARGE>
0

>  <JCHEM_FORMULA>
C8H11N3O3S

>  <JCHEM_GHOSE_FILTER>
0

>  <JCHEM_IUPAC>
4-amino-1-[(2R,5S)-2-(hydroxymethyl)-1,3-oxathiolan-5-yl]-1,2-dihydropyrimidin-2-one

>  <ALOGPS_LOGP>
-1.29

>  <JCHEM_LOGP>
-1.0951076

>  <ALOGPS_LOGS>
-1.92

>  <JCHEM_MASS>
229.256

>  <JCHEM_MDDR_LIKE_RULE>
0

>  <JCHEM_NUMBER_OF_RINGS>
2

>  <JCHEM_PHYSIOLOGICAL_CHARGE>
0

>  <JCHEM_PKA_STRONGEST_ACIDIC>
14.294606

>  <JCHEM_PKA_STRONGEST_BASIC>
-0.16058074

>  <JCHEM_POLAR_SURFACE_AREA>
88.150002

>  <JCHEM_REFRACTIVITY>
55.164501

>  <JCHEM_ROTATABLE_BOND_COUNT>
2

>  <JCHEM_RULE_OF_FIVE>
1

>  <ALOGPS_SOLUBILITY>
2.76e+00 g/l

>  <JCHEM_TRADITIONAL_IUPAC>
lamivudine

>  <JCHEM_VEBER_RULE>
0

>  <DRUGBANK_ID>
DB00709

>  <DRUG_GROUPS>
approved; investigational

>  <GENERIC_NAME>
Lamivudine

>  <SYNONYMS>
Lamivudin; Lamivudina; Lamivudine; Lamivudinum

>  <BRANDS>
Amilitrap; Antiheb; Avilam; Avolam; Epivir; Epivir-HBV; Flamivud; Ganvirel; Hepavir; Hepitec; Heptavir; Heptodin; Heptodine; Heptovir; Lamda; Lamibergen; Lamidac; Lamitec; Lamivir; Zeffix

>  <SALTS>
3-TC; GR 109714 X

$$$$
Ibandronate
 OpenBabel02121510022D

 19 18  0  0  1  0  0  0  0  0999 V2000
    4.2430   -1.7460    0.0000 P   0  0  0  0  0  0  0  0  0  0  0  0
    2.8140   -2.5710    0.0000 P   0  0  0  0  0  0  0  0  0  0  0  0
    3.9410   -2.8730    0.0000 O   0  0  0  0  0  0  0  0  0  0  0  0
    4.9580   -1.3340    0.0000 O   0  0  0  0  0  0  0  0  0  0  0  0
    4.6560   -2.4610    0.0000 O   0  0  0  0  0  0  0  0  0  0  0  0
    2.1000   -2.9840    0.0000 O   0  0  0  0  0  0  0  0  0  0  0  0
    2.4020   -1.8570    0.0000 O   0  0  0  0  0  0  0  0  0  0  0  0
    4.1000   -0.9340    0.0000 O   0  0  0  0  0  0  0  0  0  0  0  0
    2.8140   -3.3960    0.0000 O   0  0  0  0  0  0  0  0  0  0  0  0
    2.6280   -0.1020    0.0000 N   0  0  0  0  0  0  0  0  0  0  0  0
    3.5290   -2.1590    0.0000 C   0  0  0  0  0  0  0  0  0  0  0  0
    3.1160   -1.4440    0.0000 C   0  0  0  0  0  0  0  0  0  0  0  0
    3.2600   -0.6320    0.0000 C   0  0  0  0  0  0  0  0  0  0  0  0
    2.7710    0.7110    0.0000 C   0  0  0  0  0  0  0  0  0  0  0  0
    2.1390    1.2410    0.0000 C   0  0  0  0  0  0  0  0  0  0  0  0
    2.2820    2.0540    0.0000 C   0  0  0  0  0  0  0  0  0  0  0  0
    1.8520   -0.3840    0.0000 C   0  0  0  0  0  0  0  0  0  0  0  0
    1.6500    2.5840    0.0000 C   0  0  0  0  0  0  0  0  0  0  0  0
    1.7930    3.3960    0.0000 C   0  0  0  0  0  0  0  0  0  0  0  0
  1  4  1  0  0  0  0
  1  5  1  0  0  0  0
  1  8  2  0  0  0  0
  1 11  1  0  0  0  0
  2  6  1  0  0  0  0
  2  7  1  0  0  0  0
  2  9  2  0  0  0  0
  2 11  1  0  0  0  0
  3 11  1  0  0  0  0
 10 13  1  0  0  0  0
 10 14  1  0  0  0  0
 10 17  1  0  0  0  0
 11 12  1  0  0  0  0
 12 13  1  0  0  0  0
 14 15  1  0  0  0  0
 15 16  1  0  0  0  0
 16 18  1  0  0  0  0
 18 19  1  0  0  0  0
M  END
>  <DATABASE_ID>
DB00710

>  <DATABASE_NAME>
drugbank

>  <SMILES>
P(O)(O)(=O)C(P(O)(O)=O)(O)CCN(CCCCC)C

>  <INCHI_IDENTIFIER>
InChI=1S/C9H23NO7P2/c1-3-4-5-7-10(2)8-6-9(11,18(12,13)14)19(15,16)17/h11H,3-8H2,1-2H3,(H2,12,13,14)(H2,15,16,17)

>  <INCHI_KEY>
InChIKey=MPBVHIBUJCELCL-UHFFFAOYSA-N

>  <JCHEM_ACCEPTOR_COUNT>
8

>  <JCHEM_AVERAGE_POLARIZABILITY>
29.507715

>  <JCHEM_BIOAVAILABILITY>
1

>  <JCHEM_DONOR_COUNT>
5

>  <JCHEM_EXACT_MASS>
319.09497

>  <JCHEM_FORMAL_CHARGE>
0

>  <JCHEM_FORMULA>
C9H23NO7P2

>  <JCHEM_GHOSE_FILTER>
0

>  <JCHEM_IUPAC>
{1-hydroxy-3-[methyl(pentyl)amino]-1-phosphonopropyl}phosphonic acid

>  <ALOGPS_LOGP>
0.25999999

>  <JCHEM_LOGP>
-2.4814348

>  <ALOGPS_LOGS>
-1.38

>  <JCHEM_MASS>
319.22891

>  <JCHEM_MDDR_LIKE_RULE>
0

>  <JCHEM_NUMBER_OF_RINGS>
0

>  <JCHEM_PHYSIOLOGICAL_CHARGE>
-1

>  <JCHEM_PKA>
1.4244045

>  <JCHEM_PKA_STRONGEST_ACIDIC>
0.66082227

>  <JCHEM_PKA_STRONGEST_BASIC>
9.9348583

>  <JCHEM_POLAR_SURFACE_AREA>
138.53

>  <JCHEM_REFRACTIVITY>
71.162697

>  <JCHEM_ROTATABLE_BOND_COUNT>
9

>  <JCHEM_RULE_OF_FIVE>
1

>  <ALOGPS_SOLUBILITY>
1.34e+01 g/l

>  <JCHEM_TRADITIONAL_IUPAC>
1-hydroxy-3-[methyl(pentyl)amino]-1-phosphonopropylphosphonic acid

>  <JCHEM_VEBER_RULE>
0

>  <DRUGBANK_ID>
DB00710

>  <DRUG_GROUPS>
approved; investigational

>  <GENERIC_NAME>
Ibandronate

>  <SYNONYMS>
Ibandronic Acid

>  <BRANDS>
ADRONiL; Bondronat; Boniva; Bonviva

>  <SALTS>
Ibandronate sodium

$$$$
Flurbiprofen
 OpenBabel02121510022D

 18 19  0  0  1  0  0  0  0  0999 V2000
    1.6500    0.7470    0.0000 F   0  0  0  0  0  0  0  0  0  0  0  0
    3.7930   -2.9660    0.0000 O   0  0  0  0  0  0  0  0  0  0  0  0
    4.5080   -1.7280    0.0000 O   0  0  0  0  0  0  0  0  0  0  0  0
    3.0790   -1.7280    0.0000 C   0  0  3  0  0  0  0  0  0  0  0  0
    3.0790   -0.9030    0.0000 C   0  0  0  0  0  0  0  0  0  0  0  0
    3.0790    0.7470    0.0000 C   0  0  0  0  0  0  0  0  0  0  0  0
    2.3640   -0.4910    0.0000 C   0  0  0  0  0  0  0  0  0  0  0  0
    3.7930   -0.4910    0.0000 C   0  0  0  0  0  0  0  0  0  0  0  0
    2.3640    0.3340    0.0000 C   0  0  0  0  0  0  0  0  0  0  0  0
    3.7930    0.3340    0.0000 C   0  0  0  0  0  0  0  0  0  0  0  0
    2.3640   -2.1410    0.0000 C   0  0  0  0  0  0  0  0  0  0  0  0
    3.0790    1.5720    0.0000 C   0  0  0  0  0  0  0  0  0  0  0  0
    3.7930   -2.1410    0.0000 C   0  0  0  0  0  0  0  0  0  0  0  0
    2.3640    1.9840    0.0000 C   0  0  0  0  0  0  0  0  0  0  0  0
    3.7930    1.9840    0.0000 C   0  0  0  0  0  0  0  0  0  0  0  0
    2.3640    2.8090    0.0000 C   0  0  0  0  0  0  0  0  0  0  0  0
    3.7930    2.8090    0.0000 C   0  0  0  0  0  0  0  0  0  0  0  0
    3.0790    3.2220    0.0000 C   0  0  0  0  0  0  0  0  0  0  0  0
  1  9  1  0  0  0  0
  2 13  1  0  0  0  0
  3 13  2  0  0  0  0
  4  5  1  0  0  0  0
  4 11  1  0  0  0  0
  4 13  1  0  0  0  0
  5  7  2  0  0  0  0
  5  8  1  0  0  0  0
  6  9  2  0  0  0  0
  6 10  1  0  0  0  0
  6 12  1  0  0  0  0
  7  9  1  0  0  0  0
  8 10  2  0  0  0  0
 12 14  2  0  0  0  0
 12 15  1  0  0  0  0
 14 16  1  0  0  0  0
 15 17  2  0  0  0  0
 16 18  2  0  0  0  0
 17 18  1  0  0  0  0
M  END
>  <DATABASE_ID>
DB00712

>  <DATABASE_NAME>
drugbank

>  <SMILES>
Fc1cc(ccc1-c1ccccc1)C(C(O)=O)C

>  <INCHI_IDENTIFIER>
InChI=1S/C15H13FO2/c1-10(15(17)18)12-7-8-13(14(16)9-12)11-5-3-2-4-6-11/h2-10H,1H3,(H,17,18)

>  <INCHI_KEY>
InChIKey=SYTBZMRGLBWNTM-UHFFFAOYSA-N

>  <JCHEM_ACCEPTOR_COUNT>
2

>  <JCHEM_AVERAGE_POLARIZABILITY>
25.231701

>  <JCHEM_BIOAVAILABILITY>
1

>  <JCHEM_DONOR_COUNT>
1

>  <JCHEM_EXACT_MASS>
244.08995

>  <JCHEM_FORMAL_CHARGE>
0

>  <JCHEM_FORMULA>
C15H13FO2

>  <JCHEM_GHOSE_FILTER>
1

>  <JCHEM_IUPAC>
2-(3-fluoro-4-phenylphenyl)propanoic acid

>  <ALOGPS_LOGP>
3.5699999

>  <JCHEM_LOGP>
3.9439077

>  <ALOGPS_LOGS>
-3.99

>  <JCHEM_MASS>
244.26089

>  <JCHEM_MDDR_LIKE_RULE>
0

>  <JCHEM_NUMBER_OF_RINGS>
2

>  <JCHEM_PHYSIOLOGICAL_CHARGE>
-1

>  <JCHEM_PKA_STRONGEST_ACIDIC>
4.4217577

>  <JCHEM_POLAR_SURFACE_AREA>
37.299999

>  <JCHEM_REFRACTIVITY>
67.292702

>  <JCHEM_ROTATABLE_BOND_COUNT>
3

>  <JCHEM_RULE_OF_FIVE>
1

>  <ALOGPS_SOLUBILITY>
2.49e-02 g/l

>  <JCHEM_TRADITIONAL_IUPAC>
flurbiprofen

>  <JCHEM_VEBER_RULE>
1

>  <DRUGBANK_ID>
DB00712

>  <DRUG_GROUPS>
approved; investigational

>  <GENERIC_NAME>
Flurbiprofen

>  <SYNONYMS>
Flurbiprofen; Flurbiprofene; Flurbiprofeno; Flurbiprofenum; S-flurbiprofen

>  <BRANDS>
Acustop Cataplasma; Adofeed; Ansaid; Antadys; Cebutid; Flurofen; Froben; Froben Sr; Ocufen; Ocuflur; Stayban; Strefen; Strepfen; Strepsils; Strepsils Intensive; TransAct; Urbifen; Zepolas

>  <SALTS>
Flurbiprofen Sodium

$$$$
Oxacillin
 OpenBabel02121510022D

 29 32  0  0  1  0  0  0  0  0999 V2000
    6.4190    0.0640    0.0000 S   0  0  0  0  0  0  0  0  0  0  0  0
    4.2210   -1.6040    0.0000 O   0  0  0  0  0  0  0  0  0  0  0  0
    6.1220   -2.6680    0.0000 O   0  0  0  0  0  0  0  0  0  0  0  0
    7.4810   -2.2270    0.0000 O   0  0  0  0  0  0  0  0  0  0  0  0
    3.2080   -0.6110    0.0000 O   0  0  0  0  0  0  0  0  0  0  0  0
    1.6530    1.3790    0.0000 O   0  0  0  0  0  0  0  0  0  0  0  0
    5.6350   -1.0160    0.0000 N   0  0  0  0  0  0  0  0  0  0  0  0
    4.2210    0.3980    0.0000 N   0  0  0  0  0  0  0  0  0  0  0  0
    2.2380    1.9610    0.0000 N   0  0  0  0  0  0  0  0  0  0  0  0
    5.6350   -0.1900    0.0000 C   0  0  1  0  0  0  0  0  0  0  0  0
    6.9040   -0.6030    0.0000 C   0  0  0  0  0  0  0  0  0  0  0  0
    6.4190   -1.2700    0.0000 C   0  0  2  0  0  0  0  0  0  0  0  0
    4.8030   -0.1870    0.0000 C   0  0  1  0  0  0  0  0  0  0  0  0
    4.8030   -1.0190    0.0000 C   0  0  0  0  0  0  0  0  0  0  0  0
    7.5720   -0.1180    0.0000 C   0  0  0  0  0  0  0  0  0  0  0  0
    7.5720   -1.0880    0.0000 C   0  0  0  0  0  0  0  0  0  0  0  0
    6.6740   -2.0550    0.0000 C   0  0  0  0  0  0  0  0  0  0  0  0
    3.4230    0.1860    0.0000 C   0  0  0  0  0  0  0  0  0  0  0  0
    2.8410    0.7700    0.0000 C   0  0  0  0  0  0  0  0  0  0  0  0
    2.9720    1.5850    0.0000 C   0  0  0  0  0  0  0  0  0  0  0  0
    2.0260    0.6430    0.0000 C   0  0  0  0  0  0  0  0  0  0  0  0
    3.7080    1.9580    0.0000 C   0  0  0  0  0  0  0  0  0  0  0  0
    1.6500   -0.0920    0.0000 C   0  0  0  0  0  0  0  0  0  0  0  0
    3.7530    2.7820    0.0000 C   0  0  0  0  0  0  0  0  0  0  0  0
    4.3990    1.5070    0.0000 C   0  0  0  0  0  0  0  0  0  0  0  0
    4.4880    3.1550    0.0000 C   0  0  0  0  0  0  0  0  0  0  0  0
    5.1350    1.8800    0.0000 C   0  0  0  0  0  0  0  0  0  0  0  0
    5.1800    2.7040    0.0000 C   0  0  0  0  0  0  0  0  0  0  0  0
    5.5330    0.4620    0.0000 H   0  0  0  0  0  0  0  0  0  0  0  0
  1 10  1  0  0  0  0
  1 11  1  0  0  0  0
  2 14  2  0  0  0  0
  3 17  1  0  0  0  0
  4 17  2  0  0  0  0
  5 18  2  0  0  0  0
  6  9  1  0  0  0  0
  6 21  1  0  0  0  0
  7 10  1  0  0  0  0
  7 12  1  0  0  0  0
  7 14  1  0  0  0  0
  8 18  1  0  0  0  0
  9 20  2  0  0  0  0
 10 13  1  0  0  0  0
 10 29  1  6  0  0  0
 11 12  1  0  0  0  0
 11 15  1  0  0  0  0
 11 16  1  0  0  0  0
 12 17  1  6  0  0  0
 13  8  1  1  0  0  0
 13 14  1  0  0  0  0
 18 19  1  0  0  0  0
 19 20  1  0  0  0  0
 19 21  2  0  0  0  0
 20 22  1  0  0  0  0
 21 23  1  0  0  0  0
 22 24  2  0  0  0  0
 22 25  1  0  0  0  0
 24 26  1  0  0  0  0
 25 27  2  0  0  0  0
 26 28  2  0  0  0  0
 27 28  1  0  0  0  0
M  END
>  <DATABASE_ID>
DB00713

>  <DATABASE_NAME>
drugbank

>  <SMILES>
S1[C@H]2N([C@@H](C(O)=O)C1(C)C)C(=O)[C@H]2NC(=O)c1c(noc1C)-c1ccccc1

>  <INCHI_IDENTIFIER>
InChI=1S/C19H19N3O5S/c1-9-11(12(21-27-9)10-7-5-4-6-8-10)15(23)20-13-16(24)22-14(18(25)26)19(2,3)28-17(13)22/h4-8,13-14,17H,1-3H3,(H,20,23)(H,25,26)/t13-,14+,17-/m1/s1

>  <INCHI_KEY>
InChIKey=UWYHMGVUTGAWSP-JKIFEVAISA-N

>  <JCHEM_ACCEPTOR_COUNT>
5

>  <JCHEM_AVERAGE_POLARIZABILITY>
39.608845

>  <JCHEM_BIOAVAILABILITY>
1

>  <JCHEM_DONOR_COUNT>
2

>  <JCHEM_EXACT_MASS>
401.10455

>  <JCHEM_FORMAL_CHARGE>
0

>  <JCHEM_FORMULA>
C19H19N3O5S

>  <JCHEM_GHOSE_FILTER>
1

>  <JCHEM_IUPAC>
(2S,5R,6R)-3,3-dimethyl-6-(5-methyl-3-phenyl-1,2-oxazole-4-amido)-7-oxo-4-thia-1-azabicyclo[3.2.0]heptane-2-carboxylic acid

>  <ALOGPS_LOGP>
2.05

>  <JCHEM_LOGP>
1.697695

>  <ALOGPS_LOGS>
-3.6700001

>  <JCHEM_MASS>
401.436

>  <JCHEM_MDDR_LIKE_RULE>
0

>  <JCHEM_NUMBER_OF_RINGS>
4

>  <JCHEM_PHYSIOLOGICAL_CHARGE>
-1

>  <JCHEM_PKA>
13.650808

>  <JCHEM_PKA_STRONGEST_ACIDIC>
3.7509665

>  <JCHEM_PKA_STRONGEST_BASIC>
-0.11723068

>  <JCHEM_POLAR_SURFACE_AREA>
112.74

>  <JCHEM_REFRACTIVITY>
101.8323

>  <JCHEM_ROTATABLE_BOND_COUNT>
4

>  <JCHEM_RULE_OF_FIVE>
1

>  <ALOGPS_SOLUBILITY>
8.62e-02 g/l

>  <JCHEM_TRADITIONAL_IUPAC>
oxacillin

>  <JCHEM_VEBER_RULE>
0

>  <DRUGBANK_ID>
DB00713

>  <DRUG_GROUPS>
approved

>  <GENERIC_NAME>
Oxacillin

>  <SYNONYMS>
Oxacilina; Oxacillin; Oxacilline; Oxacillinum; Oxazocilline

>  <BRANDS>
Bactocill; Biocilina; Bristopen; Dicloxal Ox; InfectoStaph; Ocillina; Oxacil; Oxacilina; Oxacilinã; Oxagram; Oxal; Oxamicin; Oxapen; Oxipen; Panadox; Penstapho; Prostafilina; Prostaphlin; Stafcil; Staficilin-N; Wydox

>  <SALTS>
Oxacillin Sodium; Oxacillin Sodium Monohydrate

$$$$
Paroxetine
 OpenBabel02121510022D

 24 27  0  0  1  0  0  0  0  0999 V2000
    2.3640   -2.7310    0.0000 F   0  0  0  0  0  0  0  0  0  0  0  0
    4.5080    0.9820    0.0000 O   0  0  0  0  0  0  0  0  0  0  0  0
    7.4320    0.8210    0.0000 O   0  0  0  0  0  0  0  0  0  0  0  0
    7.4320   -0.5070    0.0000 O   0  0  0  0  0  0  0  0  0  0  0  0
    2.3640    2.2190    0.0000 N   0  0  0  0  0  0  0  0  0  0  0  0
    2.3640    0.5690    0.0000 C   0  0  1  0  0  0  0  0  0  0  0  0
    3.0790    0.9820    0.0000 C   0  0  1  0  0  0  0  0  0  0  0  0
    1.6500    0.9820    0.0000 C   0  0  0  0  0  0  0  0  0  0  0  0
    3.0790    1.8070    0.0000 C   0  0  0  0  0  0  0  0  0  0  0  0
    1.6500    1.8070    0.0000 C   0  0  0  0  0  0  0  0  0  0  0  0
    3.7940    0.5690    0.0000 C   0  0  0  0  0  0  0  0  0  0  0  0
    2.3640   -0.2560    0.0000 C   0  0  0  0  0  0  0  0  0  0  0  0
    3.0790   -0.6680    0.0000 C   0  0  0  0  0  0  0  0  0  0  0  0
    1.6500   -0.6680    0.0000 C   0  0  0  0  0  0  0  0  0  0  0  0
    3.0790   -1.4930    0.0000 C   0  0  0  0  0  0  0  0  0  0  0  0
    1.6500   -1.4930    0.0000 C   0  0  0  0  0  0  0  0  0  0  0  0
    5.2220    0.5690    0.0000 C   0  0  0  0  0  0  0  0  0  0  0  0
    2.3640   -1.9060    0.0000 C   0  0  0  0  0  0  0  0  0  0  0  0
    5.9370    0.9820    0.0000 C   0  0  0  0  0  0  0  0  0  0  0  0
    5.2220   -0.2560    0.0000 C   0  0  0  0  0  0  0  0  0  0  0  0
    6.6520    0.5690    0.0000 C   0  0  0  0  0  0  0  0  0  0  0  0
    6.6520   -0.2560    0.0000 C   0  0  0  0  0  0  0  0  0  0  0  0
    5.9370   -0.6680    0.0000 C   0  0  0  0  0  0  0  0  0  0  0  0
    7.9140    0.1570    0.0000 C   0  0  0  0  0  0  0  0  0  0  0  0
  1 18  1  0  0  0  0
  2 11  1  0  0  0  0
  2 17  1  0  0  0  0
  3 21  1  0  0  0  0
  3 24  1  0  0  0  0
  4 22  1  0  0  0  0
  4 24  1  0  0  0  0
  5  9  1  0  0  0  0
  5 10  1  0  0  0  0
  6  7  1  0  0  0  0
  6  8  1  0  0  0  0
  6 12  1  6  0  0  0
  7  9  1  0  0  0  0
  7 11  1  1  0  0  0
  8 10  1  0  0  0  0
 12 13  1  0  0  0  0
 12 14  2  0  0  0  0
 13 15  2  0  0  0  0
 14 16  1  0  0  0  0
 15 18  1  0  0  0  0
 16 18  2  0  0  0  0
 17 19  1  0  0  0  0
 17 20  2  0  0  0  0
 19 21  2  0  0  0  0
 20 23  1  0  0  0  0
 21 22  1  0  0  0  0
 22 23  2  0  0  0  0
M  END
>  <DATABASE_ID>
DB00715

>  <DATABASE_NAME>
drugbank

>  <SMILES>
Fc1ccc(cc1)[C@@H]1CCNC[C@H]1COc1cc2OCOc2cc1

>  <INCHI_IDENTIFIER>
InChI=1S/C19H20FNO3/c20-15-3-1-13(2-4-15)17-7-8-21-10-14(17)11-22-16-5-6-18-19(9-16)24-12-23-18/h1-6,9,14,17,21H,7-8,10-12H2/t14-,17-/m0/s1

>  <INCHI_KEY>
InChIKey=AHOUBRCZNHFOSL-YOEHRIQHSA-N

>  <JCHEM_ACCEPTOR_COUNT>
4

>  <JCHEM_AVERAGE_POLARIZABILITY>
34.48238

>  <JCHEM_BIOAVAILABILITY>
1

>  <JCHEM_DONOR_COUNT>
1

>  <JCHEM_EXACT_MASS>
329.14273

>  <JCHEM_FORMAL_CHARGE>
0

>  <JCHEM_FORMULA>
C19H20FNO3

>  <JCHEM_GHOSE_FILTER>
1

>  <JCHEM_IUPAC>
(3S,4R)-3-[(2H-1,3-benzodioxol-5-yloxy)methyl]-4-(4-fluorophenyl)piperidine

>  <ALOGPS_LOGP>
3.0999999

>  <JCHEM_LOGP>
3.1482487

>  <ALOGPS_LOGS>
-4.5900002

>  <JCHEM_MASS>
329.36539

>  <JCHEM_MDDR_LIKE_RULE>
0

>  <JCHEM_NUMBER_OF_RINGS>
4

>  <JCHEM_PHYSIOLOGICAL_CHARGE>
1

>  <JCHEM_PKA_STRONGEST_BASIC>
9.7749786

>  <JCHEM_POLAR_SURFACE_AREA>
39.720001

>  <JCHEM_REFRACTIVITY>
88.023697

>  <JCHEM_ROTATABLE_BOND_COUNT>
4

>  <JCHEM_RULE_OF_FIVE>
1

>  <ALOGPS_SOLUBILITY>
8.53e-03 g/l

>  <JCHEM_TRADITIONAL_IUPAC>
paroxetine

>  <JCHEM_VEBER_RULE>
1

>  <DRUGBANK_ID>
DB00715

>  <DRUG_GROUPS>
approved; investigational

>  <GENERIC_NAME>
Paroxetine

>  <BRANDS>
Aropax; Brisdelle ; Paxil; Paxil CR; PAXILCR; Pexeva; Sereupin; Seroxat; Seroxat CR

>  <SALTS>
Paroxetine Hydrochloride ; Paroxetine Mesylate

$$$$
Norethindrone
 OpenBabel02121510022D

 26 29  0  0  1  0  0  0  0  0999 V2000
    6.6260    1.5550    0.0000 O   0  0  0  0  0  0  0  0  0  0  0  0
    1.6500   -2.0000    0.0000 O   0  0  0  0  0  0  0  0  0  0  0  0
    6.0990   -0.3060    0.0000 C   0  0  2  0  0  0  0  0  0  0  0  0
    6.0990    0.5190    0.0000 C   0  0  2  0  0  0  0  0  0  0  0  0
    5.3850   -0.7190    0.0000 C   0  0  1  0  0  0  0  0  0  0  0  0
    4.6700   -0.3060    0.0000 C   0  0  2  0  0  0  0  0  0  0  0  0
    5.3850    0.9310    0.0000 C   0  0  0  0  0  0  0  0  0  0  0  0
    6.8800    0.7700    0.0000 C   0  0  2  0  0  0  0  0  0  0  0  0
    6.8800   -0.5580    0.0000 C   0  0  0  0  0  0  0  0  0  0  0  0
    4.6700    0.5190    0.0000 C   0  0  0  0  0  0  0  0  0  0  0  0
    3.9200   -0.7250    0.0000 C   0  0  2  0  0  0  0  0  0  0  0  0
    7.3610    0.1060    0.0000 C   0  0  0  0  0  0  0  0  0  0  0  0
    5.3980   -1.5780    0.0000 C   0  0  0  0  0  0  0  0  0  0  0  0
    6.0990    1.3440    0.0000 C   0  0  0  0  0  0  0  0  0  0  0  0
    4.6570   -2.0140    0.0000 C   0  0  0  0  0  0  0  0  0  0  0  0
    3.9130   -1.5840    0.0000 C   0  0  0  0  0  0  0  0  0  0  0  0
    3.1550   -0.2590    0.0000 C   0  0  0  0  0  0  0  0  0  0  0  0
    7.5480    1.2540    0.0000 C   0  0  0  0  0  0  0  0  0  0  0  0
    2.3730   -0.6950    0.0000 C   0  0  0  0  0  0  0  0  0  0  0  0
    3.1410   -2.0370    0.0000 C   0  0  0  0  0  0  0  0  0  0  0  0
    2.3660   -1.5900    0.0000 C   0  0  0  0  0  0  0  0  0  0  0  0
    8.2160    1.7380    0.0000 C   0  0  0  0  0  0  0  0  0  0  0  0
    6.1690   -0.9630    0.0000 H   0  0  0  0  0  0  0  0  0  0  0  0
    5.9590   -1.0440    0.0000 H   0  0  0  0  0  0  0  0  0  0  0  0
    5.2420    0.0240    0.0000 H   0  0  0  0  0  0  0  0  0  0  0  0
    3.9320   -0.0650    0.0000 H   0  0  0  0  0  0  0  0  0  0  0  0
  2 21  2  0  0  0  0
  3  4  1  0  0  0  0
  3  5  1  0  0  0  0
  3  9  1  0  0  0  0
  3 23  1  6  0  0  0
  4  7  1  0  0  0  0
  4  8  1  0  0  0  0
  4 14  1  1  0  0  0
  5  6  1  0  0  0  0
  5 13  1  0  0  0  0
  5 24  1  1  0  0  0
  6 10  1  0  0  0  0
  6 11  1  0  0  0  0
  6 25  1  6  0  0  0
  7 10  1  0  0  0  0
  8  1  1  1  0  0  0
  8 12  1  0  0  0  0
  8 18  1  0  0  0  0
  9 12  1  0  0  0  0
 11 16  1  0  0  0  0
 11 17  1  0  0  0  0
 11 26  1  1  0  0  0
 13 15  1  0  0  0  0
 15 16  1  0  0  0  0
 16 20  2  0  0  0  0
 17 19  1  0  0  0  0
 18 22  3  0  0  0  0
 19 21  1  0  0  0  0
 20 21  1  0  0  0  0
M  END
>  <DATABASE_ID>
DB00717

>  <DATABASE_NAME>
drugbank

>  <SMILES>
O=C1CC[C@@H]2[C@@H]3[C@H]([C@@H]4CC[C@@](O)(C#C)[C@]4(CC3)C)CCC2=C1

>  <INCHI_IDENTIFIER>
InChI=1S/C20H26O2/c1-3-20(22)11-9-18-17-6-4-13-12-14(21)5-7-15(13)16(17)8-10-19(18,20)2/h1,12,15-18,22H,4-11H2,2H3/t15-,16+,17+,18-,19-,20-/m0/s1

>  <INCHI_KEY>
InChIKey=VIKNJXKGJWUCNN-XGXHKTLJSA-N

>  <JCHEM_ACCEPTOR_COUNT>
2

>  <JCHEM_AVERAGE_POLARIZABILITY>
34.714596

>  <JCHEM_BIOAVAILABILITY>
1

>  <JCHEM_DONOR_COUNT>
1

>  <JCHEM_EXACT_MASS>
298.19327

>  <JCHEM_FORMAL_CHARGE>
0

>  <JCHEM_FORMULA>
C20H26O2

>  <JCHEM_GHOSE_FILTER>
1

>  <JCHEM_IUPAC>
(1S,2R,10R,11S,14R,15S)-14-ethynyl-14-hydroxy-15-methyltetracyclo[8.7.0.0^{2,7}.0^{11,15}]heptadec-6-en-5-one

>  <ALOGPS_LOGP>
2.72

>  <JCHEM_LOGP>
3.2172279

>  <ALOGPS_LOGS>
-4.6500001

>  <JCHEM_MASS>
298.41919

>  <JCHEM_MDDR_LIKE_RULE>
0

>  <JCHEM_NUMBER_OF_RINGS>
4

>  <JCHEM_PHYSIOLOGICAL_CHARGE>
0

>  <JCHEM_PKA>
19.278297

>  <JCHEM_PKA_STRONGEST_ACIDIC>
17.594933

>  <JCHEM_PKA_STRONGEST_BASIC>
-1.6634024

>  <JCHEM_POLAR_SURFACE_AREA>
37.299999

>  <JCHEM_REFRACTIVITY>
87.4245

>  <JCHEM_ROTATABLE_BOND_COUNT>
0

>  <JCHEM_RULE_OF_FIVE>
1

>  <ALOGPS_SOLUBILITY>
6.68e-03 g/l

>  <JCHEM_TRADITIONAL_IUPAC>
norethindrone

>  <JCHEM_VEBER_RULE>
1

>  <DRUGBANK_ID>
DB00717

>  <DRUG_GROUPS>
approved

>  <GENERIC_NAME>
Norethindrone

>  <SYNONYMS>
17α-ethinyl-19-nortestosterone; 19-nor-17α-ethynyltestosterone; 19-Norethisterone; Norethisterone; Norethisteronum; Noretisterona

>  <BRANDS>
Aygestin; Camila; Errin; HEATHER; Jencycla; Jolivette; LYZA; Micronor; NORLYROC; Primolut-N

>  <SALTS>
Norethindrone Acetate

$$$$
Adefovir Dipivoxil
 OpenBabel02121510022D

 34 35  0  0  0  0  0  0  0  0999 V2000
    6.2430   -0.8930    0.0000 P   0  0  0  0  0  0  0  0  0  0  0  0
    5.1800    0.0620    0.0000 O   0  0  0  0  0  0  0  0  0  0  0  0
    7.9820    0.4270    0.0000 O   0  0  0  0  0  0  0  0  0  0  0  0
    7.5630   -2.6310    0.0000 O   0  0  0  0  0  0  0  0  0  0  0  0
    7.0270   -0.6360    0.0000 O   0  0  0  0  0  0  0  0  0  0  0  0
    6.4990   -1.6770    0.0000 O   0  0  0  0  0  0  0  0  0  0  0  0
    7.5380    1.7850    0.0000 O   0  0  0  0  0  0  0  0  0  0  0  0
    8.9210   -2.1870    0.0000 O   0  0  0  0  0  0  0  0  0  0  0  0
    5.4590   -1.1490    0.0000 O   0  0  0  0  0  0  0  0  0  0  0  0
    3.8600    1.8000    0.0000 N   0  0  0  0  0  0  0  0  0  0  0  0
    3.8600    3.1280    0.0000 N   0  0  0  0  0  0  0  0  0  0  0  0
    2.3640    1.6390    0.0000 N   0  0  0  0  0  0  0  0  0  0  0  0
    1.6500    2.8760    0.0000 N   0  0  0  0  0  0  0  0  0  0  0  0
    2.3640    4.1140    0.0000 N   0  0  0  0  0  0  0  0  0  0  0  0
    8.9360    1.4910    0.0000 C   0  0  0  0  0  0  0  0  0  0  0  0
    8.6270   -3.5860    0.0000 C   0  0  0  0  0  0  0  0  0  0  0  0
    9.1920    0.7060    0.0000 C   0  0  0  0  0  0  0  0  0  0  0  0
    8.6800    2.2750    0.0000 C   0  0  0  0  0  0  0  0  0  0  0  0
    9.7200    1.7470    0.0000 C   0  0  0  0  0  0  0  0  0  0  0  0
    7.8420   -3.8420    0.0000 C   0  0  0  0  0  0  0  0  0  0  0  0
    9.4110   -3.3290    0.0000 C   0  0  0  0  0  0  0  0  0  0  0  0
    8.8830   -4.3700    0.0000 C   0  0  0  0  0  0  0  0  0  0  0  0
    8.1520    1.2340    0.0000 C   0  0  0  0  0  0  0  0  0  0  0  0
    8.3700   -2.8010    0.0000 C   0  0  0  0  0  0  0  0  0  0  0  0
    4.1160    1.0160    0.0000 C   0  0  0  0  0  0  0  0  0  0  0  0
    4.9230    0.8460    0.0000 C   0  0  0  0  0  0  0  0  0  0  0  0
    5.9870   -0.1090    0.0000 C   0  0  0  0  0  0  0  0  0  0  0  0
    3.0790    2.0520    0.0000 C   0  0  0  0  0  0  0  0  0  0  0  0
    7.1970    0.1710    0.0000 C   0  0  0  0  0  0  0  0  0  0  0  0
    7.3070   -1.8470    0.0000 C   0  0  0  0  0  0  0  0  0  0  0  0
    3.0790    2.8760    0.0000 C   0  0  0  0  0  0  0  0  0  0  0  0
    4.3410    2.4640    0.0000 C   0  0  0  0  0  0  0  0  0  0  0  0
    2.3640    3.2890    0.0000 C   0  0  0  0  0  0  0  0  0  0  0  0
    1.6500    2.0520    0.0000 C   0  0  0  0  0  0  0  0  0  0  0  0
  1  5  1  0  0  0  0
  1  6  1  0  0  0  0
  1  9  2  0  0  0  0
  1 27  1  0  0  0  0
  2 26  1  0  0  0  0
  2 27  1  0  0  0  0
  3 23  1  0  0  0  0
  3 29  1  0  0  0  0
  4 24  1  0  0  0  0
  4 30  1  0  0  0  0
  5 29  1  0  0  0  0
  6 30  1  0  0  0  0
  7 23  2  0  0  0  0
  8 24  2  0  0  0  0
 10 25  1  0  0  0  0
 10 28  1  0  0  0  0
 10 32  1  0  0  0  0
 11 31  1  0  0  0  0
 11 32  2  0  0  0  0
 12 28  1  0  0  0  0
 12 34  2  0  0  0  0
 13 33  2  0  0  0  0
 13 34  1  0  0  0  0
 14 33  1  0  0  0  0
 15 17  1  0  0  0  0
 15 18  1  0  0  0  0
 15 19  1  0  0  0  0
 15 23  1  0  0  0  0
 16 20  1  0  0  0  0
 16 21  1  0  0  0  0
 16 22  1  0  0  0  0
 16 24  1  0  0  0  0
 25 26  1  0  0  0  0
 28 31  2  0  0  0  0
 31 33  1  0  0  0  0
M  END
>  <DATABASE_ID>
DB00718

>  <DATABASE_NAME>
drugbank

>  <SMILES>
P(OCOC(=O)C(C)(C)C)(OCOC(=O)C(C)(C)C)(=O)COCCn1c2ncnc(N)c2nc1

>  <INCHI_IDENTIFIER>
InChI=1S/C20H32N5O8P/c1-19(2,3)17(26)30-11-32-34(28,33-12-31-18(27)20(4,5)6)13-29-8-7-25-10-24-14-15(21)22-9-23-16(14)25/h9-10H,7-8,11-13H2,1-6H3,(H2,21,22,23)

>  <INCHI_KEY>
InChIKey=WOZSCQDILHKSGG-UHFFFAOYSA-N

>  <JCHEM_ACCEPTOR_COUNT>
8

>  <JCHEM_AVERAGE_POLARIZABILITY>
49.001881

>  <JCHEM_BIOAVAILABILITY>
0

>  <JCHEM_DONOR_COUNT>
1

>  <JCHEM_EXACT_MASS>
501.19885

>  <JCHEM_FORMAL_CHARGE>
0

>  <JCHEM_FORMULA>
C20H32N5O8P

>  <JCHEM_GHOSE_FILTER>
0

>  <JCHEM_IUPAC>
[({[2-(6-amino-9H-purin-9-yl)ethoxy]methyl}({[(2,2-dimethylpropanoyl)oxy]methoxy})phosphoryl)oxy]methyl 2,2-dimethylpropanoate

>  <ALOGPS_LOGP>
1.49

>  <JCHEM_LOGP>
3.058481

>  <ALOGPS_LOGS>
-2.9000001

>  <JCHEM_MASS>
501.47049

>  <JCHEM_MDDR_LIKE_RULE>
0

>  <JCHEM_NUMBER_OF_RINGS>
2

>  <JCHEM_PHYSIOLOGICAL_CHARGE>
0

>  <JCHEM_PKA_STRONGEST_ACIDIC>
18.58806

>  <JCHEM_PKA_STRONGEST_BASIC>
5.1258717

>  <JCHEM_POLAR_SURFACE_AREA>
166.98

>  <JCHEM_REFRACTIVITY>
119.9922

>  <JCHEM_ROTATABLE_BOND_COUNT>
15

>  <JCHEM_RULE_OF_FIVE>
0

>  <ALOGPS_SOLUBILITY>
6.33e-01 g/l

>  <JCHEM_TRADITIONAL_IUPAC>
({[2-(6-aminopurin-9-yl)ethoxy]methyl[(2,2-dimethylpropanoyl)oxy]methoxyphosphoryl}oxy)methyl 2,2-dimethylpropanoate

>  <JCHEM_VEBER_RULE>
0

>  <DRUGBANK_ID>
DB00718

>  <DRUG_GROUPS>
approved; investigational

>  <GENERIC_NAME>
Adefovir Dipivoxil

>  <SYNONYMS>
Adéfovir; Adefovir; Adefovir Pivoxil; Adefovirum

>  <BRANDS>
A Di Xian; A Gan Ding; Adesera; Adfovir; Ailuwei; Antiva; Biovir; Dai Ding; Dinghe; Hepsera; Infovir; Jiule; Lifuzhi; Ming Zheng; Nafasera; Preveon; Pymefovir; Xinfunuo; Yilaifen

$$$$
Azatadine
 OpenBabel02121510022D

 22 25  0  0  0  0  0  0  0  0999 V2000
    4.0280   -1.7290    0.0000 N   0  0  0  0  0  0  0  0  0  0  0  0
    2.6640    0.5100    0.0000 N   0  0  0  0  0  0  0  0  0  0  0  0
    4.0280   -0.0790    0.0000 C   0  0  0  0  0  0  0  0  0  0  0  0
    4.7430   -0.4910    0.0000 C   0  0  0  0  0  0  0  0  0  0  0  0
    3.3140   -0.4910    0.0000 C   0  0  0  0  0  0  0  0  0  0  0  0
    4.7430   -1.3160    0.0000 C   0  0  0  0  0  0  0  0  0  0  0  0
    3.3140   -1.3160    0.0000 C   0  0  0  0  0  0  0  0  0  0  0  0
    4.0280    0.7460    0.0000 C   0  0  0  0  0  0  0  0  0  0  0  0
    4.7720    1.1040    0.0000 C   0  0  0  0  0  0  0  0  0  0  0  0
    3.2850    1.1040    0.0000 C   0  0  0  0  0  0  0  0  0  0  0  0
    4.9550    1.9090    0.0000 C   0  0  0  0  0  0  0  0  0  0  0  0
    4.4410    2.5540    0.0000 C   0  0  0  0  0  0  0  0  0  0  0  0
    3.6160    2.5540    0.0000 C   0  0  0  0  0  0  0  0  0  0  0  0
    3.1020    1.9090    0.0000 C   0  0  0  0  0  0  0  0  0  0  0  0
    4.0280   -2.5540    0.0000 C   0  0  0  0  0  0  0  0  0  0  0  0
    5.3930    0.5100    0.0000 C   0  0  0  0  0  0  0  0  0  0  0  0
    5.7720    2.1740    0.0000 C   0  0  0  0  0  0  0  0  0  0  0  0
    2.2840    2.1740    0.0000 C   0  0  0  0  0  0  0  0  0  0  0  0
    6.2160    0.7570    0.0000 C   0  0  0  0  0  0  0  0  0  0  0  0
    6.4070    1.5950    0.0000 C   0  0  0  0  0  0  0  0  0  0  0  0
    1.6500    1.5950    0.0000 C   0  0  0  0  0  0  0  0  0  0  0  0
    1.8410    0.7570    0.0000 C   0  0  0  0  0  0  0  0  0  0  0  0
  1  6  1  0  0  0  0
  1  7  1  0  0  0  0
  1 15  1  0  0  0  0
  2 10  2  0  0  0  0
  2 22  1  0  0  0  0
  3  4  1  0  0  0  0
  3  5  1  0  0  0  0
  3  8  2  0  0  0  0
  4  6  1  0  0  0  0
  5  7  1  0  0  0  0
  8  9  1  0  0  0  0
  8 10  1  0  0  0  0
  9 11  1  0  0  0  0
  9 16  2  0  0  0  0
 10 14  1  0  0  0  0
 11 12  1  0  0  0  0
 11 17  2  0  0  0  0
 12 13  1  0  0  0  0
 13 14  1  0  0  0  0
 14 18  2  0  0  0  0
 16 19  1  0  0  0  0
 17 20  1  0  0  0  0
 18 21  1  0  0  0  0
 19 20  2  0  0  0  0
 21 22  2  0  0  0  0
M  END
>  <DATABASE_ID>
DB00719

>  <DATABASE_NAME>
drugbank

>  <SMILES>
n1c2c(CCc3c(cccc3)C2=C2CCN(CC2)C)ccc1

>  <INCHI_IDENTIFIER>
InChI=1S/C20H22N2/c1-22-13-10-16(11-14-22)19-18-7-3-2-5-15(18)8-9-17-6-4-12-21-20(17)19/h2-7,12H,8-11,13-14H2,1H3

>  <INCHI_KEY>
InChIKey=SEBMTIQKRHYNIT-UHFFFAOYSA-N

>  <JCHEM_ACCEPTOR_COUNT>
2

>  <JCHEM_AVERAGE_POLARIZABILITY>
34.009247

>  <JCHEM_BIOAVAILABILITY>
1

>  <JCHEM_DONOR_COUNT>
0

>  <JCHEM_EXACT_MASS>
290.17828

>  <JCHEM_FORMAL_CHARGE>
0

>  <JCHEM_FORMULA>
C20H22N2

>  <JCHEM_GHOSE_FILTER>
1

>  <JCHEM_IUPAC>
2-(1-methylpiperidin-4-ylidene)-4-azatricyclo[9.4.0.0^{3,8}]pentadeca-1(11),3,5,7,12,14-hexaene

>  <ALOGPS_LOGP>
3.6700001

>  <JCHEM_LOGP>
3.7475412

>  <ALOGPS_LOGS>
-3.4100001

>  <JCHEM_MASS>
290.4021

>  <JCHEM_MDDR_LIKE_RULE>
0

>  <JCHEM_NUMBER_OF_RINGS>
4

>  <JCHEM_PHYSIOLOGICAL_CHARGE>
1

>  <JCHEM_PKA_STRONGEST_BASIC>
7.9146223

>  <JCHEM_POLAR_SURFACE_AREA>
16.129999

>  <JCHEM_REFRACTIVITY>
101.5287

>  <JCHEM_ROTATABLE_BOND_COUNT>
0

>  <JCHEM_RULE_OF_FIVE>
1

>  <ALOGPS_SOLUBILITY>
1.13e-01 g/l

>  <JCHEM_TRADITIONAL_IUPAC>
2-(1-methylpiperidin-4-ylidene)-4-azatricyclo[9.4.0.0^{3,8}]pentadeca-1(11),3,5,7,12,14-hexaene

>  <JCHEM_VEBER_RULE>
1

>  <DRUGBANK_ID>
DB00719

>  <DRUG_GROUPS>
approved

>  <GENERIC_NAME>
Azatadine

>  <SYNONYMS>
Azatadin; Azatadina; Azatadine; Azatadinum

>  <BRANDS>
Idumed; Optimine; Zadine

>  <SALTS>
Azatadine Maleate

$$$$
Clodronate
 OpenBabel02121510022D

 11 10  0  0  0  0  0  0  0  0999 V2000
    2.8760    0.5980    0.0000 Cl  0  0  0  0  0  0  0  0  0  0  0  0
    3.7010   -0.8310    0.0000 Cl  0  0  0  0  0  0  0  0  0  0  0  0
    4.0030    0.2960    0.0000 P   0  0  0  0  0  0  0  0  0  0  0  0
    2.5740   -0.5290    0.0000 P   0  0  0  0  0  0  0  0  0  0  0  0
    4.7180    0.7080    0.0000 O   0  0  0  0  0  0  0  0  0  0  0  0
    3.5910    1.0100    0.0000 O   0  0  0  0  0  0  0  0  0  0  0  0
    1.8600   -0.9420    0.0000 O   0  0  0  0  0  0  0  0  0  0  0  0
    2.1620    0.1850    0.0000 O   0  0  0  0  0  0  0  0  0  0  0  0
    4.4160   -0.4190    0.0000 O   0  0  0  0  0  0  0  0  0  0  0  0
    2.9870   -1.2440    0.0000 O   0  0  0  0  0  0  0  0  0  0  0  0
    3.2880   -0.1170    0.0000 C   0  0  0  0  0  0  0  0  0  0  0  0
  1 11  1  0  0  0  0
  2 11  1  0  0  0  0
  3  5  1  0  0  0  0
  3  6  1  0  0  0  0
  3  9  2  0  0  0  0
  3 11  1  0  0  0  0
  4  7  1  0  0  0  0
  4  8  1  0  0  0  0
  4 10  2  0  0  0  0
  4 11  1  0  0  0  0
M  END
>  <DATABASE_ID>
DB00720

>  <DATABASE_NAME>
drugbank

>  <SMILES>
ClC(Cl)(P(O)(O)=O)P(O)(O)=O

>  <INCHI_IDENTIFIER>
InChI=1S/CH4Cl2O6P2/c2-1(3,10(4,5)6)11(7,8)9/h(H2,4,5,6)(H2,7,8,9)

>  <INCHI_KEY>
InChIKey=ACSIXWWBWUQEHA-UHFFFAOYSA-N

>  <JCHEM_ACCEPTOR_COUNT>
6

>  <JCHEM_AVERAGE_POLARIZABILITY>
15.295153

>  <JCHEM_BIOAVAILABILITY>
1

>  <JCHEM_DONOR_COUNT>
4

>  <JCHEM_EXACT_MASS>
243.88602

>  <JCHEM_FORMAL_CHARGE>
0

>  <JCHEM_FORMULA>
CH4Cl2O6P2

>  <JCHEM_GHOSE_FILTER>
0

>  <JCHEM_IUPAC>
[dichloro(phosphono)methyl]phosphonic acid

>  <ALOGPS_LOGP>
0.16

>  <JCHEM_LOGP>
-0.066694558

>  <ALOGPS_LOGS>
-1.52

>  <JCHEM_MASS>
244.892

>  <JCHEM_MDDR_LIKE_RULE>
0

>  <JCHEM_NUMBER_OF_RINGS>
0

>  <JCHEM_PHYSIOLOGICAL_CHARGE>
-2

>  <JCHEM_PKA>
1.3807017

>  <JCHEM_PKA_STRONGEST_ACIDIC>
0.61930913

>  <JCHEM_POLAR_SURFACE_AREA>
115.06

>  <JCHEM_REFRACTIVITY>
38.2136

>  <JCHEM_ROTATABLE_BOND_COUNT>
2

>  <JCHEM_RULE_OF_FIVE>
1

>  <ALOGPS_SOLUBILITY>
7.47e+00 g/l

>  <JCHEM_TRADITIONAL_IUPAC>
dichloro(phosphono)methylphosphonic acid

>  <JCHEM_VEBER_RULE>
0

>  <DRUGBANK_ID>
DB00720

>  <DRUG_GROUPS>
approved; investigational

>  <GENERIC_NAME>
Clodronate

>  <SYNONYMS>
Acide Clodronique; Acido Clodronico; Acidum Clodronicum; Clodronsäure; Dichloromethylidene diphosphonate

>  <BRANDS>
Bonefos; Clasteon; Lodronat; Loron; Lytos; Ostac; Sindronat

>  <SALTS>
Disodium clodronate

$$$$
Procaine
 OpenBabel02121510022D

 17 17  0  0  0  0  0  0  0  0999 V2000
    3.0790    0.3340    0.0000 O   0  0  0  0  0  0  0  0  0  0  0  0
    1.6500    0.3340    0.0000 O   0  0  0  0  0  0  0  0  0  0  0  0
    3.7940    2.3970    0.0000 N   0  0  0  0  0  0  0  0  0  0  0  0
    2.3640   -3.3780    0.0000 N   0  0  0  0  0  0  0  0  0  0  0  0
    3.7940    1.5720    0.0000 C   0  0  0  0  0  0  0  0  0  0  0  0
    4.5080    2.8090    0.0000 C   0  0  0  0  0  0  0  0  0  0  0  0
    3.0790    2.8090    0.0000 C   0  0  0  0  0  0  0  0  0  0  0  0
    3.0790    1.1590    0.0000 C   0  0  0  0  0  0  0  0  0  0  0  0
    4.5080    3.6340    0.0000 C   0  0  0  0  0  0  0  0  0  0  0  0
    3.0790    3.6340    0.0000 C   0  0  0  0  0  0  0  0  0  0  0  0
    2.3640   -0.0780    0.0000 C   0  0  0  0  0  0  0  0  0  0  0  0
    2.3640   -0.9030    0.0000 C   0  0  0  0  0  0  0  0  0  0  0  0
    3.0790   -1.3160    0.0000 C   0  0  0  0  0  0  0  0  0  0  0  0
    1.6500   -1.3160    0.0000 C   0  0  0  0  0  0  0  0  0  0  0  0
    2.3640   -2.5530    0.0000 C   0  0  0  0  0  0  0  0  0  0  0  0
    3.0790   -2.1410    0.0000 C   0  0  0  0  0  0  0  0  0  0  0  0
    1.6500   -2.1410    0.0000 C   0  0  0  0  0  0  0  0  0  0  0  0
  1  8  1  0  0  0  0
  1 11  1  0  0  0  0
  2 11  2  0  0  0  0
  3  5  1  0  0  0  0
  3  6  1  0  0  0  0
  3  7  1  0  0  0  0
  4 15  1  0  0  0  0
  5  8  1  0  0  0  0
  6  9  1  0  0  0  0
  7 10  1  0  0  0  0
 11 12  1  0  0  0  0
 12 13  2  0  0  0  0
 12 14  1  0  0  0  0
 13 16  1  0  0  0  0
 14 17  2  0  0  0  0
 15 16  2  0  0  0  0
 15 17  1  0  0  0  0
M  END
>  <DATABASE_ID>
DB00721

>  <DATABASE_NAME>
drugbank

>  <SMILES>
O(C(=O)c1ccc(N)cc1)CCN(CC)CC

>  <INCHI_IDENTIFIER>
InChI=1S/C13H20N2O2/c1-3-15(4-2)9-10-17-13(16)11-5-7-12(14)8-6-11/h5-8H,3-4,9-10,14H2,1-2H3

>  <INCHI_KEY>
InChIKey=MFDFERRIHVXMIY-UHFFFAOYSA-N

>  <JCHEM_ACCEPTOR_COUNT>
3

>  <JCHEM_AVERAGE_POLARIZABILITY>
26.805002

>  <JCHEM_BIOAVAILABILITY>
1

>  <JCHEM_DONOR_COUNT>
1

>  <JCHEM_EXACT_MASS>
236.15248

>  <JCHEM_FORMAL_CHARGE>
0

>  <JCHEM_FORMULA>
C13H20N2O2

>  <JCHEM_GHOSE_FILTER>
1

>  <JCHEM_IUPAC>
2-(diethylamino)ethyl 4-aminobenzoate

>  <ALOGPS_LOGP>
2.0999999

>  <JCHEM_LOGP>
1.8800572

>  <ALOGPS_LOGS>
-1.54

>  <JCHEM_MASS>
236.3101

>  <JCHEM_MDDR_LIKE_RULE>
0

>  <JCHEM_NUMBER_OF_RINGS>
1

>  <JCHEM_PHYSIOLOGICAL_CHARGE>
1

>  <JCHEM_PKA_STRONGEST_BASIC>
8.9615517

>  <JCHEM_POLAR_SURFACE_AREA>
55.560001

>  <JCHEM_REFRACTIVITY>
70.300003

>  <JCHEM_ROTATABLE_BOND_COUNT>
7

>  <JCHEM_RULE_OF_FIVE>
1

>  <ALOGPS_SOLUBILITY>
6.81e+00 g/l

>  <JCHEM_TRADITIONAL_IUPAC>
procaine

>  <JCHEM_VEBER_RULE>
0

>  <DRUGBANK_ID>
DB00721

>  <DRUG_GROUPS>
approved; investigational

>  <GENERIC_NAME>
Procaine

>  <SYNONYMS>
2-Diethylaminoethyl p-aminobenzoate; Novocaine; p-Aminobenzoic acid 2-diethylaminoethyl ester; Vitamin H3; β-(diethylamino)ethyl 4-aminobenzoate; β-(diethylamino)ethyl p-aminobenzoate

>  <BRANDS>
Novocain

>  <SALTS>
Procaine Hydrochloride

$$$$
Lisinopril
 OpenBabel02121510022D

 29 30  0  0  1  0  0  0  0  0999 V2000
    5.6660    0.7760    0.0000 O   0  0  0  0  0  0  0  0  0  0  0  0
    7.0160    2.7950    0.0000 O   0  0  0  0  0  0  0  0  0  0  0  0
    6.5750    1.4360    0.0000 O   0  0  0  0  0  0  0  0  0  0  0  0
    2.8080    0.7760    0.0000 O   0  0  0  0  0  0  0  0  0  0  0  0
    2.0930   -0.4620    0.0000 O   0  0  0  0  0  0  0  0  0  0  0  0
    4.9510    2.0130    0.0000 N   0  0  0  0  0  0  0  0  0  0  0  0
    4.2360   -0.0500    0.0000 N   0  0  0  0  0  0  0  0  0  0  0  0
    2.0930    3.6630    0.0000 N   0  0  0  0  0  0  0  0  0  0  0  0
    5.6180    2.4980    0.0000 C   0  0  1  0  0  0  0  0  0  0  0  0
    5.3630    3.2830    0.0000 C   0  0  0  0  0  0  0  0  0  0  0  0
    4.2840    2.4980    0.0000 C   0  0  0  0  0  0  0  0  0  0  0  0
    4.5380    3.2830    0.0000 C   0  0  0  0  0  0  0  0  0  0  0  0
    4.2360    0.7760    0.0000 C   0  0  2  0  0  0  0  0  0  0  0  0
    4.9510    1.1880    0.0000 C   0  0  0  0  0  0  0  0  0  0  0  0
    3.5220    1.1880    0.0000 C   0  0  0  0  0  0  0  0  0  0  0  0
    3.5220   -0.4620    0.0000 C   0  0  1  0  0  0  0  0  0  0  0  0
    3.5220    2.0130    0.0000 C   0  0  0  0  0  0  0  0  0  0  0  0
    6.4030    2.2430    0.0000 C   0  0  0  0  0  0  0  0  0  0  0  0
    3.5220   -1.2870    0.0000 C   0  0  0  0  0  0  0  0  0  0  0  0
    2.8080    2.4260    0.0000 C   0  0  0  0  0  0  0  0  0  0  0  0
    2.8080   -1.7000    0.0000 C   0  0  0  0  0  0  0  0  0  0  0  0
    2.8080   -0.0500    0.0000 C   0  0  0  0  0  0  0  0  0  0  0  0
    2.8080    3.2510    0.0000 C   0  0  0  0  0  0  0  0  0  0  0  0
    2.8080   -2.5250    0.0000 C   0  0  0  0  0  0  0  0  0  0  0  0
    3.5220   -2.9370    0.0000 C   0  0  0  0  0  0  0  0  0  0  0  0
    2.0930   -2.9370    0.0000 C   0  0  0  0  0  0  0  0  0  0  0  0
    3.5220   -3.7620    0.0000 C   0  0  0  0  0  0  0  0  0  0  0  0
    2.0930   -3.7620    0.0000 C   0  0  0  0  0  0  0  0  0  0  0  0
    2.8080   -4.1750    0.0000 C   0  0  0  0  0  0  0  0  0  0  0  0
  1 14  2  0  0  0  0
  2 18  1  0  0  0  0
  3 18  2  0  0  0  0
  4 22  1  0  0  0  0
  5 22  2  0  0  0  0
  6  9  1  0  0  0  0
  6 11  1  0  0  0  0
  6 14  1  0  0  0  0
  8 23  1  0  0  0  0
  9 10  1  0  0  0  0
  9 18  1  1  0  0  0
 10 12  1  0  0  0  0
 11 12  1  0  0  0  0
 13  7  1  1  0  0  0
 13 14  1  0  0  0  0
 13 15  1  0  0  0  0
 15 17  1  0  0  0  0
 16  7  1  1  0  0  0
 16 19  1  0  0  0  0
 16 22  1  0  0  0  0
 17 20  1  0  0  0  0
 19 21  1  0  0  0  0
 20 23  1  0  0  0  0
 21 24  1  0  0  0  0
 24 25  2  0  0  0  0
 24 26  1  0  0  0  0
 25 27  1  0  0  0  0
 26 28  2  0  0  0  0
 27 29  2  0  0  0  0
 28 29  1  0  0  0  0
M  END
>  <DATABASE_ID>
DB00722

>  <DATABASE_NAME>
drugbank

>  <SMILES>
OC(=O)[C@H]1N(CCC1)C(=O)[C@@H](N[C@@H](CCc1ccccc1)C(O)=O)CCCCN

>  <INCHI_IDENTIFIER>
InChI=1S/C21H31N3O5/c22-13-5-4-9-16(19(25)24-14-6-10-18(24)21(28)29)23-17(20(26)27)12-11-15-7-2-1-3-8-15/h1-3,7-8,16-18,23H,4-6,9-14,22H2,(H,26,27)(H,28,29)/t16-,17-,18-/m0/s1

>  <INCHI_KEY>
InChIKey=RLAWWYSOJDYHDC-BZSNNMDCSA-N

>  <JCHEM_ACCEPTOR_COUNT>
7

>  <JCHEM_AVERAGE_POLARIZABILITY>
43.501175

>  <JCHEM_BIOAVAILABILITY>
1

>  <JCHEM_DONOR_COUNT>
4

>  <JCHEM_EXACT_MASS>
405.22638

>  <JCHEM_FORMAL_CHARGE>
0

>  <JCHEM_FORMULA>
C21H31N3O5

>  <JCHEM_GHOSE_FILTER>
0

>  <JCHEM_IUPAC>
(2S)-1-[(2S)-6-amino-2-{[(1S)-1-carboxy-3-phenylpropyl]amino}hexanoyl]pyrrolidine-2-carboxylic acid

>  <ALOGPS_LOGP>
-1.23

>  <JCHEM_LOGP>
-3.1026032

>  <ALOGPS_LOGS>
-3.27

>  <JCHEM_MASS>
405.48792

>  <JCHEM_MDDR_LIKE_RULE>
0

>  <JCHEM_NUMBER_OF_RINGS>
2

>  <JCHEM_PHYSIOLOGICAL_CHARGE>
0

>  <JCHEM_PKA>
3.8506224

>  <JCHEM_PKA_STRONGEST_ACIDIC>
3.1725657

>  <JCHEM_PKA_STRONGEST_BASIC>
10.208231

>  <JCHEM_POLAR_SURFACE_AREA>
132.96001

>  <JCHEM_REFRACTIVITY>
107.3691

>  <JCHEM_ROTATABLE_BOND_COUNT>
12

>  <JCHEM_RULE_OF_FIVE>
1

>  <ALOGPS_SOLUBILITY>
2.16e-01 g/l

>  <JCHEM_TRADITIONAL_IUPAC>
lisinopril

>  <JCHEM_VEBER_RULE>
0

>  <DRUGBANK_ID>
DB00722

>  <DRUG_GROUPS>
approved; investigational

>  <GENERIC_NAME>
Lisinopril

>  <SYNONYMS>
Lisinopril; Lisinoprilum

>  <BRANDS>
Acebitor; Acemin; Acerbon; Acinopril; Bellisin; Biopril; Dapril; Fibsol; Fisopril; Hipril; Linopril; Lisipril; Noperten; Presiten; Prinivil; Ranolip; Ranopril; Rantex; Sinopren; Sinopril; Tensopril; Zestril

$$$$
Trimipramine
 OpenBabel02121510022D

 22 24  0  0  1  0  0  0  0  0999 V2000
    3.8680    0.7170    0.0000 N   0  0  0  0  0  0  0  0  0  0  0  0
    2.4960   -1.6600    0.0000 N   0  0  0  0  0  0  0  0  0  0  0  0
    3.1820   -0.4720    0.0000 C   0  0  3  0  0  0  0  0  0  0  0  0
    3.8680   -0.0760    0.0000 C   0  0  0  0  0  0  0  0  0  0  0  0
    4.5820    1.0600    0.0000 C   0  0  0  0  0  0  0  0  0  0  0  0
    3.1540    1.0600    0.0000 C   0  0  0  0  0  0  0  0  0  0  0  0
    3.1820   -1.2640    0.0000 C   0  0  0  0  0  0  0  0  0  0  0  0
    4.2640    2.4520    0.0000 C   0  0  0  0  0  0  0  0  0  0  0  0
    3.4720    2.4520    0.0000 C   0  0  0  0  0  0  0  0  0  0  0  0
    4.7580    1.8330    0.0000 C   0  0  0  0  0  0  0  0  0  0  0  0
    2.9780    1.8330    0.0000 C   0  0  0  0  0  0  0  0  0  0  0  0
    2.4960   -0.0760    0.0000 C   0  0  0  0  0  0  0  0  0  0  0  0
    5.1780    0.4900    0.0000 C   0  0  0  0  0  0  0  0  0  0  0  0
    2.5580    0.4900    0.0000 C   0  0  0  0  0  0  0  0  0  0  0  0
    5.5420    2.0880    0.0000 C   0  0  0  0  0  0  0  0  0  0  0  0
    2.1930    2.0880    0.0000 C   0  0  0  0  0  0  0  0  0  0  0  0
    5.9680    0.7270    0.0000 C   0  0  0  0  0  0  0  0  0  0  0  0
    1.7680    0.7270    0.0000 C   0  0  0  0  0  0  0  0  0  0  0  0
    6.1520    1.5310    0.0000 C   0  0  0  0  0  0  0  0  0  0  0  0
    1.5840    1.5320    0.0000 C   0  0  0  0  0  0  0  0  0  0  0  0
    2.4960   -2.4520    0.0000 C   0  0  0  0  0  0  0  0  0  0  0  0
    1.8100   -1.2640    0.0000 C   0  0  0  0  0  0  0  0  0  0  0  0
  1  4  1  0  0  0  0
  1  5  1  0  0  0  0
  1  6  1  0  0  0  0
  2  7  1  0  0  0  0
  2 21  1  0  0  0  0
  2 22  1  0  0  0  0
  3  4  1  0  0  0  0
  3  7  1  0  0  0  0
  3 12  1  0  0  0  0
  5 10  2  0  0  0  0
  5 13  1  0  0  0  0
  6 11  2  0  0  0  0
  6 14  1  0  0  0  0
  8  9  1  0  0  0  0
  8 10  1  0  0  0  0
  9 11  1  0  0  0  0
 10 15  1  0  0  0  0
 11 16  1  0  0  0  0
 13 17  2  0  0  0  0
 14 18  2  0  0  0  0
 15 19  2  0  0  0  0
 16 20  2  0  0  0  0
 17 19  1  0  0  0  0
 18 20  1  0  0  0  0
M  END
>  <DATABASE_ID>
DB00726

>  <DATABASE_NAME>
drugbank

>  <SMILES>
N(CC(CN1c2c(CCc3c1cccc3)cccc2)C)(C)C

>  <INCHI_IDENTIFIER>
InChI=1S/C20H26N2/c1-16(14-21(2)3)15-22-19-10-6-4-8-17(19)12-13-18-9-5-7-11-20(18)22/h4-11,16H,12-15H2,1-3H3

>  <INCHI_KEY>
InChIKey=ZSCDBOWYZJWBIY-UHFFFAOYSA-N

>  <JCHEM_ACCEPTOR_COUNT>
2

>  <JCHEM_AVERAGE_POLARIZABILITY>
35.671604

>  <JCHEM_BIOAVAILABILITY>
1

>  <JCHEM_DONOR_COUNT>
0

>  <JCHEM_EXACT_MASS>
294.20959

>  <JCHEM_FORMAL_CHARGE>
0

>  <JCHEM_FORMULA>
C20H26N2

>  <JCHEM_GHOSE_FILTER>
1

>  <JCHEM_IUPAC>
(3-{2-azatricyclo[9.4.0.0^{3,8}]pentadeca-1(11),3(8),4,6,12,14-hexaen-2-yl}-2-methylpropyl)dimethylamine

>  <ALOGPS_LOGP>
4.6700001

>  <JCHEM_LOGP>
4.7578921

>  <ALOGPS_LOGS>
-4.0500002

>  <JCHEM_MASS>
294.43381

>  <JCHEM_MDDR_LIKE_RULE>
0

>  <JCHEM_NUMBER_OF_RINGS>
3

>  <JCHEM_PHYSIOLOGICAL_CHARGE>
1

>  <JCHEM_PKA_STRONGEST_BASIC>
9.4213686

>  <JCHEM_POLAR_SURFACE_AREA>
6.48

>  <JCHEM_REFRACTIVITY>
95.022003

>  <JCHEM_ROTATABLE_BOND_COUNT>
4

>  <JCHEM_RULE_OF_FIVE>
1

>  <ALOGPS_SOLUBILITY>
2.60e-02 g/l

>  <JCHEM_TRADITIONAL_IUPAC>
trimipramine

>  <JCHEM_VEBER_RULE>
1

>  <DRUGBANK_ID>
DB00726

>  <DRUG_GROUPS>
approved

>  <GENERIC_NAME>
Trimipramine

>  <SYNONYMS>
beta-Methylimipramine; Trimeprimina; Trimeprimine; Trimipramina; Trimipramine; Trimipraminum

>  <BRANDS>
Herphonal; Sapilent; Stangyl; Surmontil; Trimidura; Trimineurin; Tripress; Tydamine

>  <SALTS>
Trimipramine maleate

$$$$
Nitroglycerin
 OpenBabel02121510022D

 15 14  0  0  0  0  0  0  0  0999 V2000
    5.2220    1.0310    0.0000 O   0  0  0  0  0  0  0  0  0  0  0  0
    3.0790    0.6190    0.0000 O   0  0  0  0  0  0  0  0  0  0  0  0
    3.7940   -0.6190    0.0000 O   0  0  0  0  0  0  0  0  0  0  0  0
    6.6520    1.0310    0.0000 O   0  5  0  0  0  0  0  0  0  0  0  0
    5.9370   -0.2060    0.0000 O   0  0  0  0  0  0  0  0  0  0  0  0
    1.6500    0.6190    0.0000 O   0  5  0  0  0  0  0  0  0  0  0  0
    3.0790   -1.8560    0.0000 O   0  5  0  0  0  0  0  0  0  0  0  0
    2.3640    1.8560    0.0000 O   0  0  0  0  0  0  0  0  0  0  0  0
    4.5080   -1.8560    0.0000 O   0  0  0  0  0  0  0  0  0  0  0  0
    5.9370    0.6190    0.0000 N   0  3  0  0  0  0  0  0  0  0  0  0
    2.3640    1.0310    0.0000 N   0  3  0  0  0  0  0  0  0  0  0  0
    3.7940   -1.4440    0.0000 N   0  3  0  0  0  0  0  0  0  0  0  0
    4.5080    0.6190    0.0000 C   0  0  0  0  0  0  0  0  0  0  0  0
    3.7940    1.0310    0.0000 C   0  0  0  0  0  0  0  0  0  0  0  0
    4.5080   -0.2060    0.0000 C   0  0  0  0  0  0  0  0  0  0  0  0
  1 10  1  0  0  0  0
  1 13  1  0  0  0  0
  2 11  1  0  0  0  0
  2 14  1  0  0  0  0
  3 12  1  0  0  0  0
  3 15  1  0  0  0  0
  4 10  1  0  0  0  0
  5 10  2  0  0  0  0
  6 11  1  0  0  0  0
  7 12  1  0  0  0  0
  8 11  2  0  0  0  0
  9 12  2  0  0  0  0
 13 14  1  0  0  0  0
 13 15  1  0  0  0  0
M  CHG  6   4  -1   6  -1   7  -1  10   1  11   1  12   1
M  END
>  <DATABASE_ID>
DB00727

>  <DATABASE_NAME>
drugbank

>  <SMILES>
O([N+](=O)[O-])C(CO[N+](=O)[O-])CO[N+](=O)[O-]

>  <INCHI_IDENTIFIER>
InChI=1S/C3H5N3O9/c7-4(8)13-1-3(15-6(11)12)2-14-5(9)10/h3H,1-2H2

>  <INCHI_KEY>
InChIKey=SNIOPGDIGTZGOP-UHFFFAOYSA-N

>  <JCHEM_ACCEPTOR_COUNT>
9

>  <JCHEM_AVERAGE_POLARIZABILITY>
15.559657

>  <JCHEM_BIOAVAILABILITY>
1

>  <JCHEM_DONOR_COUNT>
0

>  <JCHEM_EXACT_MASS>
227.00258

>  <JCHEM_FORMAL_CHARGE>
0

>  <JCHEM_FORMULA>
C3H5N3O9

>  <JCHEM_GHOSE_FILTER>
1

>  <JCHEM_IUPAC>
2,3-bis(nitrooxy)propyl nitrate

>  <ALOGPS_LOGP>
1.25

>  <JCHEM_LOGP>
0.93584067

>  <ALOGPS_LOGS>
-3.05

>  <JCHEM_MASS>
227.0865

>  <JCHEM_MDDR_LIKE_RULE>
0

>  <JCHEM_NUMBER_OF_RINGS>
0

>  <JCHEM_PHYSIOLOGICAL_CHARGE>
0

>  <JCHEM_PKA_STRONGEST_BASIC>
-5.5962582

>  <JCHEM_POLAR_SURFACE_AREA>
165.14999

>  <JCHEM_REFRACTIVITY>
40.598099

>  <JCHEM_ROTATABLE_BOND_COUNT>
8

>  <JCHEM_RULE_OF_FIVE>
1

>  <ALOGPS_SOLUBILITY>
2.04e-01 g/l

>  <JCHEM_TRADITIONAL_IUPAC>
2,3-bis(nitrooxy)propyl nitrate

>  <JCHEM_VEBER_RULE>
0

>  <DRUGBANK_ID>
DB00727

>  <DRUG_GROUPS>
approved; investigational

>  <GENERIC_NAME>
Nitroglycerin

>  <SYNONYMS>
Glyceroli trinitratis ; Glyceroltrinitrat; Glyceryl trinitrate; NG; Nitroglicerina; Nitroglycerol; Nitromed; Trinitrine; Trinitroglycerin

>  <BRANDS>
Deponit; Dermatrans; Gen-Nitro; Glytrin; Glytrin Spray; Minitran; Natispray; Nitro-Dur; Nitrocap; Nitroderm TTS; Nitrolingual; Nitrolingual Pump Spray; NitroMist; Nitrostat; Rectiv; Rectogesic; Rhotrimine; Stangyl; Surmontil; Transderm-Nitro; Tridil; Trimonit; Trinipatch; Triniplas; Trinispray; Trinitrin Simplex Laleuf; Trinitron; Trinitrosan; Trintek; Trocer; Trocer SR; Vasolator; Vasovin; Venitrin; Vernies; Willlong

$$$$
Thiabendazole
 OpenBabel02121510022D

 14 16  0  0  0  0  0  0  0  0999 V2000
    6.4360    0.2500    0.0000 S   0  0  0  0  0  0  0  0  0  0  0  0
    3.8600    0.5010    0.0000 N   0  0  0  0  0  0  0  0  0  0  0  0
    3.8600   -0.8260    0.0000 N   0  0  0  0  0  0  0  0  0  0  0  0
    5.6510   -0.8300    0.0000 N   0  0  0  0  0  0  0  0  0  0  0  0
    3.0790    0.2500    0.0000 C   0  0  0  0  0  0  0  0  0  0  0  0
    3.0790   -0.5750    0.0000 C   0  0  0  0  0  0  0  0  0  0  0  0
    4.3410   -0.1620    0.0000 C   0  0  0  0  0  0  0  0  0  0  0  0
    5.1660   -0.1620    0.0000 C   0  0  0  0  0  0  0  0  0  0  0  0
    2.3640    0.6620    0.0000 C   0  0  0  0  0  0  0  0  0  0  0  0
    2.3640   -0.9880    0.0000 C   0  0  0  0  0  0  0  0  0  0  0  0
    1.6500    0.2500    0.0000 C   0  0  0  0  0  0  0  0  0  0  0  0
    1.6500   -0.5750    0.0000 C   0  0  0  0  0  0  0  0  0  0  0  0
    5.6510    0.5050    0.0000 C   0  0  0  0  0  0  0  0  0  0  0  0
    6.4360   -0.5750    0.0000 C   0  0  0  0  0  0  0  0  0  0  0  0
  1 13  1  0  0  0  0
  1 14  1  0  0  0  0
  2  5  1  0  0  0  0
  2  7  1  0  0  0  0
  3  6  1  0  0  0  0
  3  7  2  0  0  0  0
  4  8  1  0  0  0  0
  4 14  2  0  0  0  0
  5  6  2  0  0  0  0
  5  9  1  0  0  0  0
  6 10  1  0  0  0  0
  7  8  1  0  0  0  0
  8 13  2  0  0  0  0
  9 11  2  0  0  0  0
 10 12  2  0  0  0  0
 11 12  1  0  0  0  0
M  END
>  <DATABASE_ID>
DB00730

>  <DATABASE_NAME>
drugbank

>  <SMILES>
s1cc(nc1)-c1[nH]c2c(n1)cccc2

>  <INCHI_IDENTIFIER>
InChI=1S/C10H7N3S/c1-2-4-8-7(3-1)12-10(13-8)9-5-14-6-11-9/h1-6H,(H,12,13)

>  <INCHI_KEY>
InChIKey=WJCNZQLZVWNLKY-UHFFFAOYSA-N

>  <JCHEM_ACCEPTOR_COUNT>
2

>  <JCHEM_AVERAGE_POLARIZABILITY>
21.021225

>  <JCHEM_BIOAVAILABILITY>
1

>  <JCHEM_DONOR_COUNT>
1

>  <JCHEM_EXACT_MASS>
201.03607

>  <JCHEM_FORMAL_CHARGE>
0

>  <JCHEM_FORMULA>
C10H7N3S

>  <JCHEM_GHOSE_FILTER>
1

>  <JCHEM_IUPAC>
2-(1,3-thiazol-4-yl)-1H-1,3-benzodiazole

>  <ALOGPS_LOGP>
2.47

>  <JCHEM_LOGP>
2.3289173

>  <ALOGPS_LOGS>
-3.1600001

>  <JCHEM_MASS>
201.248

>  <JCHEM_MDDR_LIKE_RULE>
0

>  <JCHEM_NUMBER_OF_RINGS>
3

>  <JCHEM_PHYSIOLOGICAL_CHARGE>
0

>  <JCHEM_PKA_STRONGEST_ACIDIC>
10.276095

>  <JCHEM_PKA_STRONGEST_BASIC>
4.0757809

>  <JCHEM_POLAR_SURFACE_AREA>
41.57

>  <JCHEM_REFRACTIVITY>
64.906502

>  <JCHEM_ROTATABLE_BOND_COUNT>
1

>  <JCHEM_RULE_OF_FIVE>
1

>  <ALOGPS_SOLUBILITY>
1.38e-01 g/l

>  <JCHEM_TRADITIONAL_IUPAC>
thiabendazole

>  <JCHEM_VEBER_RULE>
0

>  <DRUGBANK_ID>
DB00730

>  <DRUG_GROUPS>
approved

>  <GENERIC_NAME>
Thiabendazole

>  <SYNONYMS>
TBDZ; TBZ; Tiabendazole

>  <BRANDS>
Mintezol

$$$$
Nateglinide
 OpenBabel02121510022D

 23 24  0  0  1  0  0  0  0  0999 V2000
   11.9280   -8.3860    0.0000 C   0  0  0  0  0  0  0  0  0  0  0  0
   11.9280   -9.2110    0.0000 C   0  0  0  0  0  0  0  0  0  0  0  0
   12.6440   -9.6240    0.0000 C   0  0  0  0  0  0  0  0  0  0  0  0
   13.3560   -9.2110    0.0000 C   0  0  0  0  0  0  0  0  0  0  0  0
   13.3560   -8.3860    0.0000 C   0  0  0  0  0  0  0  0  0  0  0  0
   12.6440   -7.9740    0.0000 C   0  0  0  0  0  0  0  0  0  0  0  0
   14.0650   -7.9740    0.0000 C   0  0  0  0  0  0  0  0  0  0  0  0
   14.7780   -8.3820    0.0000 C   0  0  2  0  0  0  0  0  0  0  0  0
   15.4900   -7.9700    0.0000 C   0  0  0  0  0  0  0  0  0  0  0  0
   16.2050   -8.3810    0.0000 O   0  0  0  0  0  0  0  0  0  0  0  0
   15.4890   -7.1440    0.0000 O   0  0  0  0  0  0  0  0  0  0  0  0
   14.7800   -9.2070    0.0000 N   0  0  0  0  0  0  0  0  0  0  0  0
   15.4950   -9.6180    0.0000 C   0  0  0  0  0  0  0  0  0  0  0  0
   15.4970  -10.4430    0.0000 C   0  0  3  0  0  0  0  0  0  0  0  0
   16.2090   -9.2040    0.0000 O   0  0  0  0  0  0  0  0  0  0  0  0
   14.7840  -10.8530    0.0000 C   0  0  0  0  0  0  0  0  0  0  0  0
   14.7860  -11.6780    0.0000 C   0  0  0  0  0  0  0  0  0  0  0  0
   15.5020  -12.0890    0.0000 C   0  0  3  0  0  0  0  0  0  0  0  0
   16.2150  -11.6750    0.0000 C   0  0  0  0  0  0  0  0  0  0  0  0
   16.2130  -10.8500    0.0000 C   0  0  0  0  0  0  0  0  0  0  0  0
   15.5020  -12.9140    0.0000 C   0  0  0  0  0  0  0  0  0  0  0  0
   16.2160  -13.3270    0.0000 C   0  0  0  0  0  0  0  0  0  0  0  0
   14.7870  -13.3270    0.0000 C   0  0  0  0  0  0  0  0  0  0  0  0
  1  2  1  0  0  0  0
  1  6  2  0  0  0  0
  2  3  2  0  0  0  0
  3  4  1  0  0  0  0
  4  5  2  0  0  0  0
  5  6  1  0  0  0  0
  5  7  1  0  0  0  0
  8  7  1  6  0  0  0
  8  9  1  0  0  0  0
  8 12  1  0  0  0  0
  9 10  1  0  0  0  0
  9 11  2  0  0  0  0
 12 13  1  0  0  0  0
 13 14  1  0  0  0  0
 13 15  2  0  0  0  0
 14 16  1  0  0  0  0
 14 20  1  0  0  0  0
 16 17  1  0  0  0  0
 17 18  1  0  0  0  0
 18 19  1  0  0  0  0
 18 21  1  0  0  0  0
 19 20  1  0  0  0  0
 21 22  1  0  0  0  0
 21 23  1  0  0  0  0
M  END
>  <DATABASE_ID>
DB00731

>  <DATABASE_NAME>
drugbank

>  <SMILES>
OC(=O)[C@H](NC(=O)C1CCC(CC1)C(C)C)Cc1ccccc1

>  <INCHI_IDENTIFIER>
InChI=1S/C19H27NO3/c1-13(2)15-8-10-16(11-9-15)18(21)20-17(19(22)23)12-14-6-4-3-5-7-14/h3-7,13,15-17H,8-12H2,1-2H3,(H,20,21)(H,22,23)/t15?,16-,17-/m1/s1

>  <INCHI_KEY>
InChIKey=OELFLUMRDSZNSF-YJEKIOLLSA-N

>  <JCHEM_ACCEPTOR_COUNT>
3

>  <JCHEM_AVERAGE_POLARIZABILITY>
35.574631

>  <JCHEM_BIOAVAILABILITY>
1

>  <JCHEM_DONOR_COUNT>
2

>  <JCHEM_EXACT_MASS>
317.1991

>  <JCHEM_FORMAL_CHARGE>
0

>  <JCHEM_FORMULA>
C19H27NO3

>  <JCHEM_GHOSE_FILTER>
1

>  <JCHEM_IUPAC>
(2R)-3-phenyl-2-{[4-(propan-2-yl)cyclohexyl]formamido}propanoic acid

>  <ALOGPS_LOGP>
3.5899999

>  <JCHEM_LOGP>
4.0285707

>  <ALOGPS_LOGS>
-4.5700002

>  <JCHEM_MASS>
317.42261

>  <JCHEM_MDDR_LIKE_RULE>
0

>  <JCHEM_NUMBER_OF_RINGS>
2

>  <JCHEM_PHYSIOLOGICAL_CHARGE>
-1

>  <JCHEM_PKA>
14.278029

>  <JCHEM_PKA_STRONGEST_ACIDIC>
3.9972527

>  <JCHEM_PKA_STRONGEST_BASIC>
-0.3783004

>  <JCHEM_POLAR_SURFACE_AREA>
66.400002

>  <JCHEM_REFRACTIVITY>
89.460503

>  <JCHEM_ROTATABLE_BOND_COUNT>
6

>  <JCHEM_RULE_OF_FIVE>
1

>  <ALOGPS_SOLUBILITY>
8.48e-03 g/l

>  <JCHEM_TRADITIONAL_IUPAC>
(2R)-2-[(4-isopropylcyclohexyl)formamido]-3-phenylpropanoic acid

>  <JCHEM_VEBER_RULE>
0

>  <DRUGBANK_ID>
DB00731

>  <DRUG_GROUPS>
approved; investigational

>  <GENERIC_NAME>
Nateglinide

>  <BRANDS>
Fastic; Starlix; Starsis

>  <SALTS>
SDZ-DJN 608

$$$$
Risperidone
 OpenBabel02121510022D

 30 34  0  0  0  0  0  0  0  0999 V2000
    1.6500   -0.1190    0.0000 F   0  0  0  0  0  0  0  0  0  0  0  0
    3.9340   -1.9520    0.0000 O   0  0  0  0  0  0  0  0  0  0  0  0
    9.8220   -0.5510    0.0000 O   0  0  0  0  0  0  0  0  0  0  0  0
    6.9640    0.2740    0.0000 N   0  0  0  0  0  0  0  0  0  0  0  0
   10.5370    0.6860    0.0000 N   0  0  0  0  0  0  0  0  0  0  0  0
    4.7360   -1.7800    0.0000 N   0  0  0  0  0  0  0  0  0  0  0  0
    9.8220    1.9240    0.0000 N   0  0  0  0  0  0  0  0  0  0  0  0
    5.5350   -0.5510    0.0000 C   0  0  0  0  0  0  0  0  0  0  0  0
    5.5350    0.2740    0.0000 C   0  0  0  0  0  0  0  0  0  0  0  0
    6.2500   -0.9640    0.0000 C   0  0  0  0  0  0  0  0  0  0  0  0
    6.2500    0.6860    0.0000 C   0  0  0  0  0  0  0  0  0  0  0  0
    6.9640   -0.5510    0.0000 C   0  0  0  0  0  0  0  0  0  0  0  0
    7.6790    0.6860    0.0000 C   0  0  0  0  0  0  0  0  0  0  0  0
    4.8210   -0.9640    0.0000 C   0  0  0  0  0  0  0  0  0  0  0  0
    8.3930    0.2740    0.0000 C   0  0  0  0  0  0  0  0  0  0  0  0
    9.1080    0.6860    0.0000 C   0  0  0  0  0  0  0  0  0  0  0  0
    4.0720   -0.6300    0.0000 C   0  0  0  0  0  0  0  0  0  0  0  0
   11.2740    0.2450    0.0000 C   0  0  0  0  0  0  0  0  0  0  0  0
   12.0220    0.6690    0.0000 C   0  0  0  0  0  0  0  0  0  0  0  0
   10.5370    1.5110    0.0000 C   0  0  0  0  0  0  0  0  0  0  0  0
   12.0220    1.5280    0.0000 C   0  0  0  0  0  0  0  0  0  0  0  0
   11.2740    1.9520    0.0000 C   0  0  0  0  0  0  0  0  0  0  0  0
    9.8220    0.2740    0.0000 C   0  0  0  0  0  0  0  0  0  0  0  0
    9.1080    1.5110    0.0000 C   0  0  0  0  0  0  0  0  0  0  0  0
    3.5210   -1.2440    0.0000 C   0  0  0  0  0  0  0  0  0  0  0  0
    3.8160    0.1540    0.0000 C   0  0  0  0  0  0  0  0  0  0  0  0
    8.3930    1.9240    0.0000 C   0  0  0  0  0  0  0  0  0  0  0  0
    2.7140   -1.0740    0.0000 C   0  0  0  0  0  0  0  0  0  0  0  0
    3.0080    0.3250    0.0000 C   0  0  0  0  0  0  0  0  0  0  0  0
    2.4570   -0.2890    0.0000 C   0  0  0  0  0  0  0  0  0  0  0  0
  1 30  1  0  0  0  0
  2  6  1  0  0  0  0
  2 25  1  0  0  0  0
  3 23  2  0  0  0  0
  4 11  1  0  0  0  0
  4 12  1  0  0  0  0
  4 13  1  0  0  0  0
  5 18  1  0  0  0  0
  5 20  1  0  0  0  0
  5 23  1  0  0  0  0
  6 14  2  0  0  0  0
  7 20  2  0  0  0  0
  7 24  1  0  0  0  0
  8  9  1  0  0  0  0
  8 10  1  0  0  0  0
  8 14  1  0  0  0  0
  9 11  1  0  0  0  0
 10 12  1  0  0  0  0
 13 15  1  0  0  0  0
 14 17  1  0  0  0  0
 15 16  1  0  0  0  0
 16 23  1  0  0  0  0
 16 24  2  0  0  0  0
 17 25  2  0  0  0  0
 17 26  1  0  0  0  0
 18 19  1  0  0  0  0
 19 21  1  0  0  0  0
 20 22  1  0  0  0  0
 21 22  1  0  0  0  0
 24 27  1  0  0  0  0
 25 28  1  0  0  0  0
 26 29  2  0  0  0  0
 28 30  2  0  0  0  0
 29 30  1  0  0  0  0
M  END
>  <DATABASE_ID>
DB00734

>  <DATABASE_NAME>
drugbank

>  <SMILES>
Fc1cc2onc(c2cc1)C1CCN(CC1)CCC=1C(=O)N2C(=NC=1C)CCCC2

>  <INCHI_IDENTIFIER>
InChI=1S/C23H27FN4O2/c1-15-18(23(29)28-10-3-2-4-21(28)25-15)9-13-27-11-7-16(8-12-27)22-19-6-5-17(24)14-20(19)30-26-22/h5-6,14,16H,2-4,7-13H2,1H3

>  <INCHI_KEY>
InChIKey=RAPZEAPATHNIPO-UHFFFAOYSA-N

>  <JCHEM_ACCEPTOR_COUNT>
4

>  <JCHEM_AVERAGE_POLARIZABILITY>
45.274826

>  <JCHEM_BIOAVAILABILITY>
1

>  <JCHEM_DONOR_COUNT>
0

>  <JCHEM_EXACT_MASS>
410.21179

>  <JCHEM_FORMAL_CHARGE>
0

>  <JCHEM_FORMULA>
C23H27FN4O2

>  <JCHEM_GHOSE_FILTER>
1

>  <JCHEM_IUPAC>
3-{2-[4-(6-fluoro-1,2-benzoxazol-3-yl)piperidin-1-yl]ethyl}-2-methyl-4H,6H,7H,8H,9H-pyrido[1,2-a]pyrimidin-4-one

>  <ALOGPS_LOGP>
3.27

>  <JCHEM_LOGP>
2.6276212

>  <ALOGPS_LOGS>
-3.3800001

>  <JCHEM_MASS>
410.4845

>  <JCHEM_MDDR_LIKE_RULE>
0

>  <JCHEM_NUMBER_OF_RINGS>
5

>  <JCHEM_PHYSIOLOGICAL_CHARGE>
1

>  <JCHEM_PKA_STRONGEST_BASIC>
8.7631674

>  <JCHEM_POLAR_SURFACE_AREA>
61.939999

>  <JCHEM_REFRACTIVITY>
114.5492

>  <JCHEM_ROTATABLE_BOND_COUNT>
4

>  <JCHEM_RULE_OF_FIVE>
1

>  <ALOGPS_SOLUBILITY>
1.71e-01 g/l

>  <JCHEM_TRADITIONAL_IUPAC>
risperidone

>  <JCHEM_VEBER_RULE>
0

>  <DRUGBANK_ID>
DB00734

>  <DRUG_GROUPS>
approved; investigational

>  <GENERIC_NAME>
Risperidone

>  <SYNONYMS>
Risperidona; Risperidonum

>  <BRANDS>
Risperdal; Risperdal Consta; Risperdal M-Tab; Risperidal M-Tab; Risperin; Rispolept; Rispolin; Sequinan

$$$$
Esomeprazole
 OpenBabel02121510022D

 24 26  0  0  1  0  0  0  0  0999 V2000
   -2.4660   -0.7620    0.0000 C   0  0  0  0  0  0  0  0  0  0  0  0
   -1.6410   -0.7610    0.0000 N   0  0  0  0  0  0  0  0  0  0  0  0
   -1.2280   -1.4760    0.0000 C   0  0  0  0  0  0  0  0  0  0  0  0
   -0.4030   -1.4750    0.0000 C   0  0  0  0  0  0  0  0  0  0  0  0
   -0.1060   -0.0780    0.0000 O   0  0  0  0  0  0  0  0  0  0  0  0
   -1.6400   -2.1900    0.0000 C   0  0  0  0  0  0  0  0  0  0  0  0
   -2.4650   -2.1910    0.0000 C   0  0  0  0  0  0  0  0  0  0  0  0
   -2.8770   -2.9060    0.0000 O   0  0  0  0  0  0  0  0  0  0  0  0
   -3.7020   -2.9060    0.0000 C   0  0  0  0  0  0  0  0  0  0  0  0
    0.1490   -0.8620    0.0000 S   0  0  1  0  0  0  0  0  0  0  0  0
    1.0340   -0.8600    0.0000 C   0  0  0  0  0  0  0  0  0  0  0  0
    1.5260   -1.5230    0.0000 N   0  0  0  0  0  0  0  0  0  0  0  0
    1.5120   -0.1880    0.0000 N   0  0  0  0  0  0  0  0  0  0  0  0
    2.2990   -0.4350    0.0000 C   0  0  0  0  0  0  0  0  0  0  0  0
    2.3080   -1.2600    0.0000 C   0  0  0  0  0  0  0  0  0  0  0  0
    3.0100   -0.0150    0.0000 C   0  0  0  0  0  0  0  0  0  0  0  0
    3.0260   -1.6650    0.0000 C   0  0  0  0  0  0  0  0  0  0  0  0
    3.7280   -0.4200    0.0000 C   0  0  0  0  0  0  0  0  0  0  0  0
    3.7370   -1.2450    0.0000 C   0  0  0  0  0  0  0  0  0  0  0  0
    4.4750   -1.6120    0.0000 O   0  0  0  0  0  0  0  0  0  0  0  0
    5.2570   -1.3490    0.0000 C   0  0  0  0  0  0  0  0  0  0  0  0
   -1.2270   -2.9050    0.0000 C   0  0  0  0  0  0  0  0  0  0  0  0
   -2.8780   -1.4760    0.0000 C   0  0  0  0  0  0  0  0  0  0  0  0
   -3.7000   -1.4140    0.0000 C   0  0  0  0  0  0  0  0  0  0  0  0
  1  2  2  0  0  0  0
  1 23  1  0  0  0  0
  2  3  1  0  0  0  0
  3  4  1  0  0  0  0
  3  6  2  0  0  0  0
  6  7  1  0  0  0  0
  6 22  1  0  0  0  0
  7  8  1  0  0  0  0
  7 23  2  0  0  0  0
  8  9  1  0  0  0  0
 10  5  2  1  0  0  0
 10  4  1  0  0  0  0
 10 11  1  0  0  0  0
 11 12  2  0  0  0  0
 11 13  1  0  0  0  0
 12 15  1  0  0  0  0
 13 14  1  0  0  0  0
 14 15  2  0  0  0  0
 14 16  1  0  0  0  0
 15 17  1  0  0  0  0
 16 18  2  0  0  0  0
 17 19  2  0  0  0  0
 18 19  1  0  0  0  0
 19 20  1  0  0  0  0
 20 21  1  0  0  0  0
 23 24  1  0  0  0  0
M  END
>  <DATABASE_ID>
DB00736

>  <DATABASE_NAME>
drugbank

>  <SMILES>
S(=O)(Cc1ncc(C)c(OC)c1C)c1[nH]c2c(n1)cc(OC)cc2

>  <INCHI_IDENTIFIER>
InChI=1S/C17H19N3O3S/c1-10-8-18-15(11(2)16(10)23-4)9-24(21)17-19-13-6-5-12(22-3)7-14(13)20-17/h5-8H,9H2,1-4H3,(H,19,20)/t24-/m1/s1

>  <INCHI_KEY>
InChIKey=SUBDBMMJDZJVOS-XMMPIXPASA-N

>  <JCHEM_ACCEPTOR_COUNT>
5

>  <JCHEM_AVERAGE_POLARIZABILITY>
37.42506

>  <JCHEM_BIOAVAILABILITY>
1

>  <JCHEM_DONOR_COUNT>
1

>  <JCHEM_EXACT_MASS>
345.11472

>  <JCHEM_FORMAL_CHARGE>
0

>  <JCHEM_FORMULA>
C17H19N3O3S

>  <JCHEM_GHOSE_FILTER>
1

>  <JCHEM_IUPAC>
5-methoxy-2-[(R)-[(4-methoxy-3,5-dimethylpyridin-2-yl)methane]sulfinyl]-1H-1,3-benzodiazole

>  <ALOGPS_LOGP>
1.66

>  <JCHEM_LOGP>
2.4335091

>  <ALOGPS_LOGS>
-2.99

>  <JCHEM_MASS>
345.41599

>  <JCHEM_MDDR_LIKE_RULE>
0

>  <JCHEM_NUMBER_OF_RINGS>
3

>  <JCHEM_PHYSIOLOGICAL_CHARGE>
0

>  <JCHEM_PKA>
18.313311

>  <JCHEM_PKA_STRONGEST_ACIDIC>
9.677577

>  <JCHEM_PKA_STRONGEST_BASIC>
4.7728639

>  <JCHEM_POLAR_SURFACE_AREA>
77.099998

>  <JCHEM_REFRACTIVITY>
93.6623

>  <JCHEM_ROTATABLE_BOND_COUNT>
5

>  <JCHEM_RULE_OF_FIVE>
1

>  <ALOGPS_SOLUBILITY>
3.53e-01 g/l

>  <JCHEM_TRADITIONAL_IUPAC>
5-methoxy-2-[(R)-(4-methoxy-3,5-dimethylpyridin-2-yl)methanesulfinyl]-1H-1,3-benzodiazole

>  <JCHEM_VEBER_RULE>
0

>  <DRUGBANK_ID>
DB00736

>  <DRUG_GROUPS>
approved; investigational

>  <GENERIC_NAME>
Esomeprazole

>  <SYNONYMS>
(-)-Omeprazole; (S)-Omeprazole; Esomeprazol; Ésoméprazole; Esomeprazolum; Perprazole

>  <BRANDS>
Alenia; Awa-Block; Axagon; Cor; Cronopep; Emanera; Emep; Emozul; ES-OD; Esmep; Eso; Esofag; Esolok; Esomarfan; Esomenta; Esomep; Esomeprazol Genfar; Esopral; Esorest; Lucen; Nexiam; Nexium; Nexium i.v.

>  <SALTS>
Esomeprazole Sodium

$$$$
Meclizine
 OpenBabel02121510022D

 28 31  0  0  1  0  0  0  0  0999 V2000
    1.6500   -3.3000    0.0000 Cl  0  0  0  0  0  0  0  0  0  0  0  0
    4.5080   -0.8250    0.0000 N   0  0  0  0  0  0  0  0  0  0  0  0
    4.5080    0.8250    0.0000 N   0  0  0  0  0  0  0  0  0  0  0  0
    3.7940   -0.4120    0.0000 C   0  0  0  0  0  0  0  0  0  0  0  0
    5.2220   -0.4120    0.0000 C   0  0  0  0  0  0  0  0  0  0  0  0
    3.7940    0.4120    0.0000 C   0  0  0  0  0  0  0  0  0  0  0  0
    5.2220    0.4120    0.0000 C   0  0  0  0  0  0  0  0  0  0  0  0
    4.5080   -1.6500    0.0000 C   0  0  3  0  0  0  0  0  0  0  0  0
    4.5080    1.6500    0.0000 C   0  0  0  0  0  0  0  0  0  0  0  0
    3.7940   -2.0620    0.0000 C   0  0  0  0  0  0  0  0  0  0  0  0
    5.2220   -2.0620    0.0000 C   0  0  0  0  0  0  0  0  0  0  0  0
    5.2220    2.0620    0.0000 C   0  0  0  0  0  0  0  0  0  0  0  0
    3.7940   -2.8880    0.0000 C   0  0  0  0  0  0  0  0  0  0  0  0
    3.0790   -1.6500    0.0000 C   0  0  0  0  0  0  0  0  0  0  0  0
    5.9370   -1.6500    0.0000 C   0  0  0  0  0  0  0  0  0  0  0  0
    5.2220   -2.8880    0.0000 C   0  0  0  0  0  0  0  0  0  0  0  0
    5.9370    1.6500    0.0000 C   0  0  0  0  0  0  0  0  0  0  0  0
    5.2220    2.8880    0.0000 C   0  0  0  0  0  0  0  0  0  0  0  0
    3.0790   -3.3000    0.0000 C   0  0  0  0  0  0  0  0  0  0  0  0
    2.3640   -2.0620    0.0000 C   0  0  0  0  0  0  0  0  0  0  0  0
    6.6520   -2.0620    0.0000 C   0  0  0  0  0  0  0  0  0  0  0  0
    5.9370   -3.3000    0.0000 C   0  0  0  0  0  0  0  0  0  0  0  0
    6.6520    2.0620    0.0000 C   0  0  0  0  0  0  0  0  0  0  0  0
    2.3640   -2.8880    0.0000 C   0  0  0  0  0  0  0  0  0  0  0  0
    6.6520   -2.8880    0.0000 C   0  0  0  0  0  0  0  0  0  0  0  0
    5.9370    3.3000    0.0000 C   0  0  0  0  0  0  0  0  0  0  0  0
    6.6520    2.8880    0.0000 C   0  0  0  0  0  0  0  0  0  0  0  0
    7.3660    1.6500    0.0000 C   0  0  0  0  0  0  0  0  0  0  0  0
  1 24  1  0  0  0  0
  2  4  1  0  0  0  0
  2  5  1  0  0  0  0
  2  8  1  0  0  0  0
  3  6  1  0  0  0  0
  3  7  1  0  0  0  0
  3  9  1  0  0  0  0
  4  6  1  0  0  0  0
  5  7  1  0  0  0  0
  8 10  1  0  0  0  0
  8 11  1  0  0  0  0
  9 12  1  0  0  0  0
 10 13  2  0  0  0  0
 10 14  1  0  0  0  0
 11 15  2  0  0  0  0
 11 16  1  0  0  0  0
 12 17  2  0  0  0  0
 12 18  1  0  0  0  0
 13 19  1  0  0  0  0
 14 20  2  0  0  0  0
 15 21  1  0  0  0  0
 16 22  2  0  0  0  0
 17 23  1  0  0  0  0
 18 26  2  0  0  0  0
 19 24  2  0  0  0  0
 20 24  1  0  0  0  0
 21 25  2  0  0  0  0
 22 25  1  0  0  0  0
 23 27  2  0  0  0  0
 23 28  1  0  0  0  0
 26 27  1  0  0  0  0
M  END
>  <DATABASE_ID>
DB00737

>  <DATABASE_NAME>
drugbank

>  <SMILES>
Clc1ccc(cc1)C(N1CCN(CC1)Cc1cc(ccc1)C)c1ccccc1

>  <INCHI_IDENTIFIER>
InChI=1S/C25H27ClN2/c1-20-6-5-7-21(18-20)19-27-14-16-28(17-15-27)25(22-8-3-2-4-9-22)23-10-12-24(26)13-11-23/h2-13,18,25H,14-17,19H2,1H3

>  <INCHI_KEY>
InChIKey=OCJYIGYOJCODJL-UHFFFAOYSA-N

>  <JCHEM_ACCEPTOR_COUNT>
2

>  <JCHEM_AVERAGE_POLARIZABILITY>
44.869534

>  <JCHEM_BIOAVAILABILITY>
1

>  <JCHEM_DONOR_COUNT>
0

>  <JCHEM_EXACT_MASS>
390.18628

>  <JCHEM_FORMAL_CHARGE>
0

>  <JCHEM_FORMULA>
C25H27ClN2

>  <JCHEM_GHOSE_FILTER>
0

>  <JCHEM_IUPAC>
1-[(4-chlorophenyl)(phenyl)methyl]-4-[(3-methylphenyl)methyl]piperazine

>  <ALOGPS_LOGP>
5.5900002

>  <JCHEM_LOGP>
6.3879414

>  <ALOGPS_LOGS>
-5.5799999

>  <JCHEM_MASS>
390.948

>  <JCHEM_MDDR_LIKE_RULE>
0

>  <JCHEM_NUMBER_OF_RINGS>
4

>  <JCHEM_PHYSIOLOGICAL_CHARGE>
1

>  <JCHEM_PKA_STRONGEST_BASIC>
8.1607733

>  <JCHEM_POLAR_SURFACE_AREA>
6.48

>  <JCHEM_REFRACTIVITY>
119.3922

>  <JCHEM_ROTATABLE_BOND_COUNT>
5

>  <JCHEM_RULE_OF_FIVE>
0

>  <ALOGPS_SOLUBILITY>
1.03e-03 g/l

>  <JCHEM_TRADITIONAL_IUPAC>
meclizine

>  <JCHEM_VEBER_RULE>
1

>  <DRUGBANK_ID>
DB00737

>  <DRUG_GROUPS>
approved

>  <GENERIC_NAME>
Meclizine

>  <SYNONYMS>
Meclozine

>  <BRANDS>
Antivert; Bonamine; Bonine; Chiclida; Dramamine; Meclicot; Navicalm; Postafen; Sea-Legs

>  <SALTS>
Meclizine Hydrochloride

$$$$
Riluzole
 OpenBabel02121510022D

 15 16  0  0  0  0  0  0  0  0999 V2000
    6.0030    0.5130    0.0000 S   0  0  0  0  0  0  0  0  0  0  0  0
    2.7770   -0.4530    0.0000 F   0  0  0  0  0  0  0  0  0  0  0  0
    1.6500   -0.1510    0.0000 F   0  0  0  0  0  0  0  0  0  0  0  0
    1.9520    0.9760    0.0000 F   0  0  0  0  0  0  0  0  0  0  0  0
    3.0790    0.6740    0.0000 O   0  0  0  0  0  0  0  0  0  0  0  0
    6.0030   -0.8150    0.0000 N   0  0  0  0  0  0  0  0  0  0  0  0
    7.3100   -0.1510    0.0000 N   0  0  0  0  0  0  0  0  0  0  0  0
    5.2220    0.2620    0.0000 C   0  0  0  0  0  0  0  0  0  0  0  0
    5.2220   -0.5640    0.0000 C   0  0  0  0  0  0  0  0  0  0  0  0
    4.5080    0.6740    0.0000 C   0  0  0  0  0  0  0  0  0  0  0  0
    3.7940    0.2620    0.0000 C   0  0  0  0  0  0  0  0  0  0  0  0
    4.5080   -0.9760    0.0000 C   0  0  0  0  0  0  0  0  0  0  0  0
    3.7940   -0.5640    0.0000 C   0  0  0  0  0  0  0  0  0  0  0  0
    6.4850   -0.1510    0.0000 C   0  0  0  0  0  0  0  0  0  0  0  0
    2.3640    0.2620    0.0000 C   0  0  0  0  0  0  0  0  0  0  0  0
  1  8  1  0  0  0  0
  1 14  1  0  0  0  0
  2 15  1  0  0  0  0
  3 15  1  0  0  0  0
  4 15  1  0  0  0  0
  5 11  1  0  0  0  0
  5 15  1  0  0  0  0
  6  9  1  0  0  0  0
  6 14  2  0  0  0  0
  7 14  1  0  0  0  0
  8  9  1  0  0  0  0
  8 10  2  0  0  0  0
  9 12  2  0  0  0  0
 10 11  1  0  0  0  0
 11 13  2  0  0  0  0
 12 13  1  0  0  0  0
M  END
>  <DATABASE_ID>
DB00740

>  <DATABASE_NAME>
drugbank

>  <SMILES>
s1c2cc(OC(F)(F)F)ccc2nc1N

>  <INCHI_IDENTIFIER>
InChI=1S/C8H5F3N2OS/c9-8(10,11)14-4-1-2-5-6(3-4)15-7(12)13-5/h1-3H,(H2,12,13)

>  <INCHI_KEY>
InChIKey=FTALBRSUTCGOEG-UHFFFAOYSA-N

>  <JCHEM_ACCEPTOR_COUNT>
3

>  <JCHEM_AVERAGE_POLARIZABILITY>
18.587734

>  <JCHEM_BIOAVAILABILITY>
1

>  <JCHEM_DONOR_COUNT>
1

>  <JCHEM_EXACT_MASS>
234.00746

>  <JCHEM_FORMAL_CHARGE>
0

>  <JCHEM_FORMULA>
C8H5F3N2OS

>  <JCHEM_GHOSE_FILTER>
1

>  <JCHEM_IUPAC>
6-(trifluoromethoxy)-1,3-benzothiazol-2-amine

>  <ALOGPS_LOGP>
2.8299999

>  <JCHEM_LOGP>
3.3999074

>  <ALOGPS_LOGS>
-3.77

>  <JCHEM_MASS>
234.198

>  <JCHEM_MDDR_LIKE_RULE>
0

>  <JCHEM_NUMBER_OF_RINGS>
2

>  <JCHEM_PHYSIOLOGICAL_CHARGE>
0

>  <JCHEM_PKA_STRONGEST_ACIDIC>
16.440592

>  <JCHEM_PKA_STRONGEST_BASIC>
4.5730848

>  <JCHEM_POLAR_SURFACE_AREA>
48.139999

>  <JCHEM_REFRACTIVITY>
44.3727

>  <JCHEM_ROTATABLE_BOND_COUNT>
2

>  <JCHEM_RULE_OF_FIVE>
1

>  <ALOGPS_SOLUBILITY>
3.95e-02 g/l

>  <JCHEM_TRADITIONAL_IUPAC>
riluzole

>  <JCHEM_VEBER_RULE>
0

>  <DRUGBANK_ID>
DB00740

>  <DRUG_GROUPS>
approved; investigational

>  <GENERIC_NAME>
Riluzole

>  <SYNONYMS>
Riluzol; Riluzole; Riluzolum

>  <BRANDS>
Fanizan; Laidec; Lizolorol; Lizorolol; Rilustad; Rilutek; Sclefic; Xie Yi Li; Zolerilis

>  <SALTS>
Riluzole Hydrochloride

$$$$
Hydrocortisone
 OpenBabel02121510022D

 29 32  0  0  1  0  0  0  0  0999 V2000
    6.6260    1.5370    0.0000 O   0  0  0  0  0  0  0  0  0  0  0  0
    3.9560    0.9130    0.0000 O   0  0  0  0  0  0  0  0  0  0  0  0
    7.4630    2.0560    0.0000 O   0  0  0  0  0  0  0  0  0  0  0  0
    8.9700    1.3820    0.0000 O   0  0  0  0  0  0  0  0  0  0  0  0
    1.6500   -2.0180    0.0000 O   0  0  0  0  0  0  0  0  0  0  0  0
    6.0990    0.5000    0.0000 C   0  0  1  0  0  0  0  0  0  0  0  0
    6.0990   -0.3250    0.0000 C   0  0  2  0  0  0  0  0  0  0  0  0
    5.3850   -0.7370    0.0000 C   0  0  1  0  0  0  0  0  0  0  0  0
    4.6700   -0.3250    0.0000 C   0  0  1  0  0  0  0  0  0  0  0  0
    6.8800    0.7520    0.0000 C   0  0  1  0  0  0  0  0  0  0  0  0
    5.3850    0.9130    0.0000 C   0  0  0  0  0  0  0  0  0  0  0  0
    3.9200   -0.7430    0.0000 C   0  0  2  0  0  0  0  0  0  0  0  0
    4.6700    0.5000    0.0000 C   0  0  2  0  0  0  0  0  0  0  0  0
    6.8800   -0.5760    0.0000 C   0  0  0  0  0  0  0  0  0  0  0  0
    7.3610    0.0880    0.0000 C   0  0  0  0  0  0  0  0  0  0  0  0
    5.3980   -1.5970    0.0000 C   0  0  0  0  0  0  0  0  0  0  0  0
    6.0990    1.3250    0.0000 C   0  0  0  0  0  0  0  0  0  0  0  0
    3.9130   -1.6020    0.0000 C   0  0  0  0  0  0  0  0  0  0  0  0
    4.6570   -2.0320    0.0000 C   0  0  0  0  0  0  0  0  0  0  0  0
    3.1550   -0.2780    0.0000 C   0  0  0  0  0  0  0  0  0  0  0  0
    3.9260    0.0820    0.0000 C   0  0  0  0  0  0  0  0  0  0  0  0
    7.5480    1.2350    0.0000 C   0  0  0  0  0  0  0  0  0  0  0  0
    2.3730   -0.7130    0.0000 C   0  0  0  0  0  0  0  0  0  0  0  0
    3.1410   -2.0560    0.0000 C   0  0  0  0  0  0  0  0  0  0  0  0
    2.3660   -1.6080    0.0000 C   0  0  0  0  0  0  0  0  0  0  0  0
    8.3010    0.8980    0.0000 C   0  0  0  0  0  0  0  0  0  0  0  0
    6.1690   -0.9810    0.0000 H   0  0  0  0  0  0  0  0  0  0  0  0
    5.9590   -1.0630    0.0000 H   0  0  0  0  0  0  0  0  0  0  0  0
    5.2420    0.0050    0.0000 H   0  0  0  0  0  0  0  0  0  0  0  0
  3 22  2  0  0  0  0
  4 26  1  0  0  0  0
  5 25  2  0  0  0  0
  6  7  1  0  0  0  0
  6 10  1  0  0  0  0
  6 11  1  0  0  0  0
  6 17  1  1  0  0  0
  7  8  1  0  0  0  0
  7 14  1  0  0  0  0
  7 27  1  6  0  0  0
  8  9  1  0  0  0  0
  8 16  1  0  0  0  0
  8 28  1  1  0  0  0
  9 12  1  0  0  0  0
  9 13  1  0  0  0  0
  9 29  1  6  0  0  0
 10  1  1  6  0  0  0
 10 15  1  0  0  0  0
 10 22  1  0  0  0  0
 11 13  1  0  0  0  0
 12 18  1  0  0  0  0
 12 20  1  0  0  0  0
 12 21  1  1  0  0  0
 13  2  1  1  0  0  0
 14 15  1  0  0  0  0
 16 19  1  0  0  0  0
 18 19  1  0  0  0  0
 18 24  2  0  0  0  0
 20 23  1  0  0  0  0
 22 26  1  0  0  0  0
 23 25  1  0  0  0  0
 24 25  1  0  0  0  0
M  END
>  <DATABASE_ID>
DB00741

>  <DATABASE_NAME>
drugbank

>  <SMILES>
O=C1CC[C@@]2([C@@H]3[C@H]([C@@H]4CC[C@](O)(C(=O)CO)[C@]4(C[C@@H]3O)C)CCC2=C1)C

>  <INCHI_IDENTIFIER>
InChI=1S/C21H30O5/c1-19-7-5-13(23)9-12(19)3-4-14-15-6-8-21(26,17(25)11-22)20(15,2)10-16(24)18(14)19/h9,14-16,18,22,24,26H,3-8,10-11H2,1-2H3/t14-,15-,16-,18+,19-,20-,21-/m0/s1

>  <INCHI_KEY>
InChIKey=JYGXADMDTFJGBT-VWUMJDOOSA-N

>  <JCHEM_ACCEPTOR_COUNT>
5

>  <JCHEM_AVERAGE_POLARIZABILITY>
39.554432

>  <JCHEM_BIOAVAILABILITY>
1

>  <JCHEM_DONOR_COUNT>
3

>  <JCHEM_EXACT_MASS>
362.20932

>  <JCHEM_FORMAL_CHARGE>
0

>  <JCHEM_FORMULA>
C21H30O5

>  <JCHEM_GHOSE_FILTER>
1

>  <JCHEM_IUPAC>
(1S,2R,10S,11S,14R,15S,17S)-14,17-dihydroxy-14-(2-hydroxyacetyl)-2,15-dimethyltetracyclo[8.7.0.0^{2,7}.0^{11,15}]heptadec-6-en-5-one

>  <ALOGPS_LOGP>
1.79

>  <JCHEM_LOGP>
1.2751664

>  <ALOGPS_LOGS>
-3.26

>  <JCHEM_MASS>
362.4599

>  <JCHEM_MDDR_LIKE_RULE>
0

>  <JCHEM_NUMBER_OF_RINGS>
4

>  <JCHEM_PHYSIOLOGICAL_CHARGE>
0

>  <JCHEM_PKA>
13.865242

>  <JCHEM_PKA_STRONGEST_ACIDIC>
12.584727

>  <JCHEM_PKA_STRONGEST_BASIC>
-2.8468642

>  <JCHEM_POLAR_SURFACE_AREA>
94.830002

>  <JCHEM_REFRACTIVITY>
97.400002

>  <JCHEM_ROTATABLE_BOND_COUNT>
2

>  <JCHEM_RULE_OF_FIVE>
1

>  <ALOGPS_SOLUBILITY>
1.99e-01 g/l

>  <JCHEM_TRADITIONAL_IUPAC>
hydrocortisone

>  <JCHEM_VEBER_RULE>
0

>  <DRUGBANK_ID>
DB00741

>  <DRUG_GROUPS>
approved

>  <GENERIC_NAME>
Hydrocortisone

>  <SYNONYMS>
11beta-hydrocortisone; 11beta,17alpha,21-Trihydroxy-4-pregnene-3,20-dione; 11β-hydrocortisone; 17-Hydroxycorticosterone; Cortisol; Hidrocortisona; Hydrocortisonum; Kendall's compound F; Reichstein's substance M

>  <BRANDS>
A-HYDROCORT; Acticort; Aeroseb HC; Ala-Scalp; Alacort; Algicirtis; Anusol HC; Aquanil HC; Beta-HC; CaldeCORT; Cetacort; Colocort; Cortaid; CORTEF; Cortenema; Cortifoam; Delacort; Ficortril; Genacort; Glycort; Komed HC; Lacticare HC; Locoid; Mildison; Pandel; Preparation H Hydrocortisone Cream; Procto-Pak; Proctocream; Proctozone; Sanatison; Scalpicin Capilar; Schericur; Solu-Cortef; Texacort; U-Cort; Westcort

>  <SALTS>
Hydrocortisone Acetate; Hydrocortisone Probutate; Hydrocortisone Valerate

$$$$
Zileuton
 OpenBabel02121510022D

 16 17  0  0  1  0  0  0  0  0999 V2000
    3.8600    1.1870    0.0000 S   0  0  0  0  0  0  0  0  0  0  0  0
    5.1660   -0.9060    0.0000 O   0  0  0  0  0  0  0  0  0  0  0  0
    6.8160    0.5240    0.0000 O   0  0  0  0  0  0  0  0  0  0  0  0
    5.5790   -0.1910    0.0000 N   0  0  0  0  0  0  0  0  0  0  0  0
    6.8160   -0.9060    0.0000 N   0  0  0  0  0  0  0  0  0  0  0  0
    5.1660    0.5240    0.0000 C   0  0  3  0  0  0  0  0  0  0  0  0
    4.3410    0.5240    0.0000 C   0  0  0  0  0  0  0  0  0  0  0  0
    3.0790    0.1110    0.0000 C   0  0  0  0  0  0  0  0  0  0  0  0
    3.8600   -0.1400    0.0000 C   0  0  0  0  0  0  0  0  0  0  0  0
    3.0790    0.9360    0.0000 C   0  0  0  0  0  0  0  0  0  0  0  0
    5.5790    1.2380    0.0000 C   0  0  0  0  0  0  0  0  0  0  0  0
    2.3640   -0.3020    0.0000 C   0  0  0  0  0  0  0  0  0  0  0  0
    2.3640    1.3480    0.0000 C   0  0  0  0  0  0  0  0  0  0  0  0
    1.6500    0.1110    0.0000 C   0  0  0  0  0  0  0  0  0  0  0  0
    1.6500    0.9360    0.0000 C   0  0  0  0  0  0  0  0  0  0  0  0
    6.4040   -0.1910    0.0000 C   0  0  0  0  0  0  0  0  0  0  0  0
  1  7  1  0  0  0  0
  1 10  1  0  0  0  0
  2  4  1  0  0  0  0
  3 16  2  0  0  0  0
  4  6  1  0  0  0  0
  4 16  1  0  0  0  0
  5 16  1  0  0  0  0
  6  7  1  0  0  0  0
  6 11  1  0  0  0  0
  7  9  2  0  0  0  0
  8  9  1  0  0  0  0
  8 10  2  0  0  0  0
  8 12  1  0  0  0  0
 10 13  1  0  0  0  0
 12 14  2  0  0  0  0
 13 15  2  0  0  0  0
 14 15  1  0  0  0  0
M  END
>  <DATABASE_ID>
DB00744

>  <DATABASE_NAME>
drugbank

>  <SMILES>
s1c2c(cc1C(N(O)C(=O)N)C)cccc2

>  <INCHI_IDENTIFIER>
InChI=1S/C11H12N2O2S/c1-7(13(15)11(12)14)10-6-8-4-2-3-5-9(8)16-10/h2-7,15H,1H3,(H2,12,14)

>  <INCHI_KEY>
InChIKey=MWLSOWXNZPKENC-UHFFFAOYSA-N

>  <JCHEM_ACCEPTOR_COUNT>
2

>  <JCHEM_AVERAGE_POLARIZABILITY>
24.13772

>  <JCHEM_BIOAVAILABILITY>
1

>  <JCHEM_DONOR_COUNT>
2

>  <JCHEM_EXACT_MASS>
236.06195

>  <JCHEM_FORMAL_CHARGE>
0

>  <JCHEM_FORMULA>
C11H12N2O2S

>  <JCHEM_GHOSE_FILTER>
1

>  <JCHEM_IUPAC>
1-[1-(1-benzothiophen-2-yl)ethyl]-1-hydroxyurea

>  <ALOGPS_LOGP>
2.01

>  <JCHEM_LOGP>
2.0061729

>  <ALOGPS_LOGS>
-3.6400001

>  <JCHEM_MASS>
236.28999

>  <JCHEM_MDDR_LIKE_RULE>
0

>  <JCHEM_NUMBER_OF_RINGS>
2

>  <JCHEM_PHYSIOLOGICAL_CHARGE>
0

>  <JCHEM_PKA_STRONGEST_ACIDIC>
8.8377829

>  <JCHEM_PKA_STRONGEST_BASIC>
-5.4941535

>  <JCHEM_POLAR_SURFACE_AREA>
66.559998

>  <JCHEM_REFRACTIVITY>
61.959499

>  <JCHEM_ROTATABLE_BOND_COUNT>
2

>  <JCHEM_RULE_OF_FIVE>
1

>  <ALOGPS_SOLUBILITY>
5.39e-02 g/l

>  <JCHEM_TRADITIONAL_IUPAC>
zileuton

>  <JCHEM_VEBER_RULE>
0

>  <DRUGBANK_ID>
DB00744

>  <DRUG_GROUPS>
approved; investigational; withdrawn

>  <GENERIC_NAME>
Zileuton

>  <SYNONYMS>
Leutrol; Zileuton; Zileuton; Zileutonum

>  <BRANDS>
Zyflo; Zyflo CR

$$$$
Modafinil
 OpenBabel02121510022D

 19 20  0  0  1  0  0  0  0  0999 V2000
    3.0790    0.2850    0.0000 S   0  0  3  0  0  0  0  0  0  0  0  0
    2.3640   -0.1280    0.0000 O   0  0  0  0  0  0  0  0  0  0  0  0
    1.6500    1.1100    0.0000 O   0  0  0  0  0  0  0  0  0  0  0  0
    2.3640    2.3470    0.0000 N   0  0  0  0  0  0  0  0  0  0  0  0
    3.7940   -0.1280    0.0000 C   0  0  0  0  0  0  0  0  0  0  0  0
    3.7940   -0.9530    0.0000 C   0  0  0  0  0  0  0  0  0  0  0  0
    4.5080    0.2850    0.0000 C   0  0  0  0  0  0  0  0  0  0  0  0
    3.0790    1.1100    0.0000 C   0  0  0  0  0  0  0  0  0  0  0  0
    4.5080   -1.3650    0.0000 C   0  0  0  0  0  0  0  0  0  0  0  0
    4.5080    1.1100    0.0000 C   0  0  0  0  0  0  0  0  0  0  0  0
    3.0790   -1.3650    0.0000 C   0  0  0  0  0  0  0  0  0  0  0  0
    5.2220   -0.1280    0.0000 C   0  0  0  0  0  0  0  0  0  0  0  0
    4.5080   -2.1900    0.0000 C   0  0  0  0  0  0  0  0  0  0  0  0
    5.2220    1.5220    0.0000 C   0  0  0  0  0  0  0  0  0  0  0  0
    3.0790   -2.1900    0.0000 C   0  0  0  0  0  0  0  0  0  0  0  0
    5.9370    0.2850    0.0000 C   0  0  0  0  0  0  0  0  0  0  0  0
    3.7940   -2.6030    0.0000 C   0  0  0  0  0  0  0  0  0  0  0  0
    5.9370    1.1100    0.0000 C   0  0  0  0  0  0  0  0  0  0  0  0
    2.3640    1.5220    0.0000 C   0  0  0  0  0  0  0  0  0  0  0  0
  1  2  2  0  0  0  0
  1  5  1  0  0  0  0
  1  8  1  0  0  0  0
  3 19  2  0  0  0  0
  4 19  1  0  0  0  0
  5  6  1  0  0  0  0
  5  7  1  0  0  0  0
  6  9  2  0  0  0  0
  6 11  1  0  0  0  0
  7 10  2  0  0  0  0
  7 12  1  0  0  0  0
  8 19  1  0  0  0  0
  9 13  1  0  0  0  0
 10 14  1  0  0  0  0
 11 15  2  0  0  0  0
 12 16  2  0  0  0  0
 13 17  2  0  0  0  0
 14 18  2  0  0  0  0
 15 17  1  0  0  0  0
 16 18  1  0  0  0  0
M  END
>  <DATABASE_ID>
DB00745

>  <DATABASE_NAME>
drugbank

>  <SMILES>
S(=O)(C(c1ccccc1)c1ccccc1)CC(=O)N

>  <INCHI_IDENTIFIER>
InChI=1S/C15H15NO2S/c16-14(17)11-19(18)15(12-7-3-1-4-8-12)13-9-5-2-6-10-13/h1-10,15H,11H2,(H2,16,17)

>  <INCHI_KEY>
InChIKey=YFGHCGITMMYXAQ-UHFFFAOYSA-N

>  <JCHEM_ACCEPTOR_COUNT>
2

>  <JCHEM_AVERAGE_POLARIZABILITY>
28.714691

>  <JCHEM_BIOAVAILABILITY>
1

>  <JCHEM_DONOR_COUNT>
1

>  <JCHEM_EXACT_MASS>
273.08234

>  <JCHEM_FORMAL_CHARGE>
0

>  <JCHEM_FORMULA>
C15H15NO2S

>  <JCHEM_GHOSE_FILTER>
1

>  <JCHEM_IUPAC>
2-(diphenylmethane)sulfinylacetamide

>  <ALOGPS_LOGP>
1.75

>  <JCHEM_LOGP>
1.5328344

>  <ALOGPS_LOGS>
-2.6400001

>  <JCHEM_MASS>
273.35001

>  <JCHEM_MDDR_LIKE_RULE>
0

>  <JCHEM_NUMBER_OF_RINGS>
2

>  <JCHEM_PHYSIOLOGICAL_CHARGE>
0

>  <JCHEM_PKA>
19.252638

>  <JCHEM_PKA_STRONGEST_ACIDIC>
8.8397665

>  <JCHEM_PKA_STRONGEST_BASIC>
-4.3594155

>  <JCHEM_POLAR_SURFACE_AREA>
60.16

>  <JCHEM_REFRACTIVITY>
77.388603

>  <JCHEM_ROTATABLE_BOND_COUNT>
5

>  <JCHEM_RULE_OF_FIVE>
1

>  <ALOGPS_SOLUBILITY>
6.22e-01 g/l

>  <JCHEM_TRADITIONAL_IUPAC>
2-diphenylmethanesulfinylacetamide

>  <JCHEM_VEBER_RULE>
0

>  <DRUGBANK_ID>
DB00745

>  <DRUG_GROUPS>
approved; investigational

>  <GENERIC_NAME>
Modafinil

>  <SYNONYMS>
Modafinil; Modafinilo; Modafinilum

>  <BRANDS>
Alertec; Alertex; Aspendos; Forcilin; Mentix; Modasomil; Modavigil; Modiodal; Provake; Provigil; Resotyl; Sparlon; Stavigile; Vigicer; Vigil; Zalux

$$$$
Scopolamine
 OpenBabel02121510022D

 22 25  0  0  1  0  0  0  0  0999 V2000
   16.9200  -13.7280    0.0000 C   0  0  1  0  0  0  0  0  0  0  0  0
   16.9200  -15.5820    0.0000 C   0  0  2  0  0  0  0  0  0  0  0  0
   17.7240  -15.3980    0.0000 C   0  0  0  0  0  0  0  0  0  0  0  0
   17.7240  -13.9120    0.0000 C   0  0  0  0  0  0  0  0  0  0  0  0
   16.2750  -14.2420    0.0000 C   0  0  1  0  0  0  0  0  0  0  0  0
   16.2750  -15.0670    0.0000 C   0  0  2  0  0  0  0  0  0  0  0  0
   15.5600  -14.6550    0.0000 O   0  0  0  0  0  0  0  0  0  0  0  0
   16.7690  -14.6350    0.0000 N   0  0  0  0  0  0  0  0  0  0  0  0
   17.4710  -14.6350    0.0000 C   0  0  0  0  0  0  0  0  0  0  0  0
   18.0820  -14.6550    0.0000 C   0  0  3  0  0  0  0  0  0  0  0  0
   18.9070  -14.6550    0.0000 O   0  0  0  0  0  0  0  0  0  0  0  0
   19.6210  -15.8920    0.0000 O   0  0  0  0  0  0  0  0  0  0  0  0
   19.6210  -15.0670    0.0000 C   0  0  0  0  0  0  0  0  0  0  0  0
   20.3360  -13.8300    0.0000 C   0  0  0  0  0  0  0  0  0  0  0  0
   21.0500  -13.4170    0.0000 O   0  0  0  0  0  0  0  0  0  0  0  0
   20.3360  -14.6550    0.0000 C   0  0  2  0  0  0  0  0  0  0  0  0
   21.0500  -15.0670    0.0000 C   0  0  0  0  0  0  0  0  0  0  0  0
   21.7650  -14.6550    0.0000 C   0  0  0  0  0  0  0  0  0  0  0  0
   21.0500  -15.8920    0.0000 C   0  0  0  0  0  0  0  0  0  0  0  0
   21.7650  -16.3050    0.0000 C   0  0  0  0  0  0  0  0  0  0  0  0
   22.4790  -15.8920    0.0000 C   0  0  0  0  0  0  0  0  0  0  0  0
   22.4790  -15.0670    0.0000 C   0  0  0  0  0  0  0  0  0  0  0  0
  1  4  1  6  0  0  0
  1  5  1  0  0  0  0
  1  8  1  0  0  0  0
  2  3  1  6  0  0  0
  2  6  1  0  0  0  0
  2  8  1  0  0  0  0
  3 10  1  0  0  0  0
  4 10  1  0  0  0  0
  5  6  1  0  0  0  0
  5  7  1  1  0  0  0
  6  7  1  1  0  0  0
  8  9  1  0  0  0  0
 10 11  1  0  0  0  0
 11 13  1  0  0  0  0
 12 13  2  0  0  0  0
 14 15  1  0  0  0  0
 16 14  1  6  0  0  0
 16 13  1  0  0  0  0
 16 17  1  0  0  0  0
 17 18  2  0  0  0  0
 17 19  1  0  0  0  0
 18 22  1  0  0  0  0
 19 20  2  0  0  0  0
 20 21  1  0  0  0  0
 21 22  2  0  0  0  0
M  END
>  <DATABASE_ID>
DB00747

>  <DATABASE_NAME>
drugbank

>  <SMILES>
O1[C@H]2[C@H]3N([C@@H]([C@@H]12)CC(OC(=O)[C@H](CO)c1ccccc1)C3)C

>  <INCHI_IDENTIFIER>
InChI=1S/C17H21NO4/c1-18-13-7-11(8-14(18)16-15(13)22-16)21-17(20)12(9-19)10-5-3-2-4-6-10/h2-6,11-16,19H,7-9H2,1H3/t11-,12-,13-,14+,15-,16+/m1/s1

>  <INCHI_KEY>
InChIKey=STECJAGHUSJQJN-FWXGHANASA-N

>  <JCHEM_ACCEPTOR_COUNT>
4

>  <JCHEM_AVERAGE_POLARIZABILITY>
31.410105

>  <JCHEM_BIOAVAILABILITY>
1

>  <JCHEM_DONOR_COUNT>
1

>  <JCHEM_EXACT_MASS>
303.14706

>  <JCHEM_FORMAL_CHARGE>
0

>  <JCHEM_FORMULA>
C17H21NO4

>  <JCHEM_GHOSE_FILTER>
1

>  <JCHEM_IUPAC>
(1R,2R,4S,5S,7S)-9-methyl-3-oxa-9-azatricyclo[3.3.1.0^{2,4}]nonan-7-yl (2S)-3-hydroxy-2-phenylpropanoate

>  <ALOGPS_LOGP>
1.4

>  <JCHEM_LOGP>
0.8949523

>  <ALOGPS_LOGS>
-1.66

>  <JCHEM_MASS>
303.35291

>  <JCHEM_MDDR_LIKE_RULE>
0

>  <JCHEM_NUMBER_OF_RINGS>
4

>  <JCHEM_PHYSIOLOGICAL_CHARGE>
0

>  <JCHEM_PKA_STRONGEST_ACIDIC>
15.14574

>  <JCHEM_PKA_STRONGEST_BASIC>
6.9535236

>  <JCHEM_POLAR_SURFACE_AREA>
62.299999

>  <JCHEM_REFRACTIVITY>
79.721298

>  <JCHEM_ROTATABLE_BOND_COUNT>
5

>  <JCHEM_RULE_OF_FIVE>
1

>  <ALOGPS_SOLUBILITY>
6.61e+00 g/l

>  <JCHEM_TRADITIONAL_IUPAC>
scopolamine

>  <JCHEM_VEBER_RULE>
0

>  <DRUGBANK_ID>
DB00747

>  <DRUG_GROUPS>
approved

>  <GENERIC_NAME>
Scopolamine

>  <SYNONYMS>
(-)-hyoscine; (-)-scopolamine; 6,7-Epoxytropine tropate; Hyoscine; scopine (−)-tropate

>  <BRANDS>
Scopoderm; Transderm-Scop

>  <SALTS>
Scopolamine Hydrobromide

$$$$
Carbinoxamine
 OpenBabel02121510022D

 20 21  0  0  1  0  0  0  0  0999 V2000
    3.7940   -3.0940    0.0000 Cl  0  0  0  0  0  0  0  0  0  0  0  0
    3.0790    0.6190    0.0000 O   0  0  0  0  0  0  0  0  0  0  0  0
    2.3640    2.6810    0.0000 N   0  0  0  0  0  0  0  0  0  0  0  0
    4.5080    1.4440    0.0000 N   0  0  0  0  0  0  0  0  0  0  0  0
    3.7940    0.2060    0.0000 C   0  0  3  0  0  0  0  0  0  0  0  0
    3.0790    1.4440    0.0000 C   0  0  0  0  0  0  0  0  0  0  0  0
    2.3640    1.8560    0.0000 C   0  0  0  0  0  0  0  0  0  0  0  0
    3.7940   -0.6190    0.0000 C   0  0  0  0  0  0  0  0  0  0  0  0
    4.5080    0.6190    0.0000 C   0  0  0  0  0  0  0  0  0  0  0  0
    4.5080   -1.0310    0.0000 C   0  0  0  0  0  0  0  0  0  0  0  0
    3.0790   -1.0310    0.0000 C   0  0  0  0  0  0  0  0  0  0  0  0
    5.2220    0.2060    0.0000 C   0  0  0  0  0  0  0  0  0  0  0  0
    3.0790    3.0940    0.0000 C   0  0  0  0  0  0  0  0  0  0  0  0
    1.6500    3.0940    0.0000 C   0  0  0  0  0  0  0  0  0  0  0  0
    4.5080   -1.8560    0.0000 C   0  0  0  0  0  0  0  0  0  0  0  0
    3.0790   -1.8560    0.0000 C   0  0  0  0  0  0  0  0  0  0  0  0
    3.7940   -2.2690    0.0000 C   0  0  0  0  0  0  0  0  0  0  0  0
    5.9370    0.6190    0.0000 C   0  0  0  0  0  0  0  0  0  0  0  0
    5.2220    1.8560    0.0000 C   0  0  0  0  0  0  0  0  0  0  0  0
    5.9370    1.4440    0.0000 C   0  0  0  0  0  0  0  0  0  0  0  0
  1 17  1  0  0  0  0
  2  5  1  0  0  0  0
  2  6  1  0  0  0  0
  3  7  1  0  0  0  0
  3 13  1  0  0  0  0
  3 14  1  0  0  0  0
  4  9  1  0  0  0  0
  4 19  2  0  0  0  0
  5  8  1  0  0  0  0
  5  9  1  0  0  0  0
  6  7  1  0  0  0  0
  8 10  2  0  0  0  0
  8 11  1  0  0  0  0
  9 12  2  0  0  0  0
 10 15  1  0  0  0  0
 11 16  2  0  0  0  0
 12 18  1  0  0  0  0
 15 17  2  0  0  0  0
 16 17  1  0  0  0  0
 18 20  2  0  0  0  0
 19 20  1  0  0  0  0
M  END
>  <DATABASE_ID>
DB00748

>  <DATABASE_NAME>
drugbank

>  <SMILES>
Clc1ccc(cc1)C(OCCN(C)C)c1ncccc1

>  <INCHI_IDENTIFIER>
InChI=1S/C16H19ClN2O/c1-19(2)11-12-20-16(15-5-3-4-10-18-15)13-6-8-14(17)9-7-13/h3-10,16H,11-12H2,1-2H3

>  <INCHI_KEY>
InChIKey=OJFSXZCBGQGRNV-UHFFFAOYSA-N

>  <JCHEM_ACCEPTOR_COUNT>
3

>  <JCHEM_AVERAGE_POLARIZABILITY>
31.699436

>  <JCHEM_BIOAVAILABILITY>
1

>  <JCHEM_DONOR_COUNT>
0

>  <JCHEM_EXACT_MASS>
290.11859

>  <JCHEM_FORMAL_CHARGE>
0

>  <JCHEM_FORMULA>
C16H19ClN2O

>  <JCHEM_GHOSE_FILTER>
1

>  <JCHEM_IUPAC>
{2-[(4-chlorophenyl)(pyridin-2-yl)methoxy]ethyl}dimethylamine

>  <ALOGPS_LOGP>
3.03

>  <JCHEM_LOGP>
3.2719407

>  <ALOGPS_LOGS>
-3.1099999

>  <JCHEM_MASS>
290.78799

>  <JCHEM_MDDR_LIKE_RULE>
0

>  <JCHEM_NUMBER_OF_RINGS>
2

>  <JCHEM_PHYSIOLOGICAL_CHARGE>
1

>  <JCHEM_PKA_STRONGEST_BASIC>
8.8670349

>  <JCHEM_POLAR_SURFACE_AREA>
25.360001

>  <JCHEM_REFRACTIVITY>
82.1278

>  <JCHEM_ROTATABLE_BOND_COUNT>
6

>  <JCHEM_RULE_OF_FIVE>
1

>  <ALOGPS_SOLUBILITY>
2.28e-01 g/l

>  <JCHEM_TRADITIONAL_IUPAC>
(+-)-carbinoxamine

>  <JCHEM_VEBER_RULE>
1

>  <DRUGBANK_ID>
DB00748

>  <DRUG_GROUPS>
approved

>  <GENERIC_NAME>
Carbinoxamine

>  <SYNONYMS>
Carbinoxamin; Carbinoxamina; Carbinoxamine; Carbinoxaminum

>  <BRANDS>
Allergefon; Arbinoxa; Clistin; Histin; Karbinal; Palgic; Rotoxamine; Satinmin

>  <SALTS>
Carbinoxamine Maleate

$$$$
Etodolac
 OpenBabel02121510022D

 21 23  0  0  1  0  0  0  0  0999 V2000
    6.2900   -0.5040    0.0000 O   0  0  0  0  0  0  0  0  0  0  0  0
    7.7110    1.0020    0.0000 O   0  0  0  0  0  0  0  0  0  0  0  0
    7.2850   -0.3620    0.0000 O   0  0  0  0  0  0  0  0  0  0  0  0
    4.2050    0.4230    0.0000 N   0  0  0  0  0  0  0  0  0  0  0  0
    5.7100    0.1300    0.0000 C   0  0  3  0  0  0  0  0  0  0  0  0
    4.8730   -0.0620    0.0000 C   0  0  0  0  0  0  0  0  0  0  0  0
    4.6180   -0.8460    0.0000 C   0  0  0  0  0  0  0  0  0  0  0  0
    5.1830   -1.4940    0.0000 C   0  0  0  0  0  0  0  0  0  0  0  0
    5.5290    0.9350    0.0000 C   0  0  0  0  0  0  0  0  0  0  0  0
    6.3170    0.6890    0.0000 C   0  0  0  0  0  0  0  0  0  0  0  0
    3.7930   -0.8460    0.0000 C   0  0  0  0  0  0  0  0  0  0  0  0
    6.0250   -1.3210    0.0000 C   0  0  0  0  0  0  0  0  0  0  0  0
    3.5380   -0.0620    0.0000 C   0  0  0  0  0  0  0  0  0  0  0  0
    2.7000    0.1300    0.0000 C   0  0  0  0  0  0  0  0  0  0  0  0
    6.1360    1.4940    0.0000 C   0  0  0  0  0  0  0  0  0  0  0  0
    3.2280   -1.4940    0.0000 C   0  0  0  0  0  0  0  0  0  0  0  0
    7.1040    0.4430    0.0000 C   0  0  0  0  0  0  0  0  0  0  0  0
    2.4550    0.9170    0.0000 C   0  0  0  0  0  0  0  0  0  0  0  0
    2.1210   -0.5040    0.0000 C   0  0  0  0  0  0  0  0  0  0  0  0
    2.3860   -1.3210    0.0000 C   0  0  0  0  0  0  0  0  0  0  0  0
    1.6500    1.0980    0.0000 C   0  0  0  0  0  0  0  0  0  0  0  0
  1  5  1  0  0  0  0
  1 12  1  0  0  0  0
  2 17  1  0  0  0  0
  3 17  2  0  0  0  0
  4  6  1  0  0  0  0
  4 13  1  0  0  0  0
  5  6  1  0  0  0  0
  5  9  1  0  0  0  0
  5 10  1  0  0  0  0
  6  7  2  0  0  0  0
  7  8  1  0  0  0  0
  7 11  1  0  0  0  0
  8 12  1  0  0  0  0
  9 15  1  0  0  0  0
 10 17  1  0  0  0  0
 11 13  2  0  0  0  0
 11 16  1  0  0  0  0
 13 14  1  0  0  0  0
 14 18  1  0  0  0  0
 14 19  2  0  0  0  0
 16 20  2  0  0  0  0
 18 21  1  0  0  0  0
 19 20  1  0  0  0  0
M  END
>  <DATABASE_ID>
DB00749

>  <DATABASE_NAME>
drugbank

>  <SMILES>
O1CCc2c([nH]c3c2cccc3CC)C1(CC(O)=O)CC

>  <INCHI_IDENTIFIER>
InChI=1S/C17H21NO3/c1-3-11-6-5-7-12-13-8-9-21-17(4-2,10-14(19)20)16(13)18-15(11)12/h5-7,18H,3-4,8-10H2,1-2H3,(H,19,20)

>  <INCHI_KEY>
InChIKey=NNYBQONXHNTVIJ-UHFFFAOYSA-N

>  <JCHEM_ACCEPTOR_COUNT>
3

>  <JCHEM_AVERAGE_POLARIZABILITY>
31.93618

>  <JCHEM_BIOAVAILABILITY>
1

>  <JCHEM_DONOR_COUNT>
2

>  <JCHEM_EXACT_MASS>
287.15213

>  <JCHEM_FORMAL_CHARGE>
0

>  <JCHEM_FORMULA>
C17H21NO3

>  <JCHEM_GHOSE_FILTER>
1

>  <JCHEM_IUPAC>
2-{1,8-diethyl-1H,3H,4H,9H-pyrano[3,4-b]indol-1-yl}acetic acid

>  <ALOGPS_LOGP>
3.3900001

>  <JCHEM_LOGP>
3.4435265

>  <ALOGPS_LOGS>
-3.8699999

>  <JCHEM_MASS>
287.35349

>  <JCHEM_MDDR_LIKE_RULE>
0

>  <JCHEM_NUMBER_OF_RINGS>
3

>  <JCHEM_PHYSIOLOGICAL_CHARGE>
-1

>  <JCHEM_PKA>
16.178246

>  <JCHEM_PKA_STRONGEST_ACIDIC>
4.726933

>  <JCHEM_PKA_STRONGEST_BASIC>
-4.2128792

>  <JCHEM_POLAR_SURFACE_AREA>
62.32

>  <JCHEM_REFRACTIVITY>
81.157303

>  <JCHEM_ROTATABLE_BOND_COUNT>
4

>  <JCHEM_RULE_OF_FIVE>
1

>  <ALOGPS_SOLUBILITY>
3.92e-02 g/l

>  <JCHEM_TRADITIONAL_IUPAC>
etodolac

>  <JCHEM_VEBER_RULE>
0

>  <DRUGBANK_ID>
DB00749

>  <DRUG_GROUPS>
approved; investigational

>  <GENERIC_NAME>
Etodolac

>  <SYNONYMS>
Étodolac; Etodolac; Etodolaco; Etodolacum; Etodolic acid; Etodolsäure

>  <BRANDS>
Bodopine; Dolarit; Dolchis; Doloc; Dualgan; Eccoxolac; Edolar Fort; Edopain; Edopain ER; Elac; Elderin; Eric; Esodax; ETL; Etodin; Etodin Fort; Etodol; Etodon; Etoflam; Etol Fort; Etolac; Etomax; Etomax-ER; Etonox; Etopan; Etopin; Lodine; Lodine XL

$$$$
Tranylcypromine
 OpenBabel02121510022D

 10 11  0  0  1  0  0  0  0  0999 V2000
    3.4920    1.5450    0.0000 N   0  0  0  0  0  0  0  0  0  0  0  0
    2.3640    0.4180    0.0000 C   0  0  3  0  0  0  0  0  0  0  0  0
    2.7770    1.1330    0.0000 C   0  0  1  0  0  0  0  0  0  0  0  0
    1.9520    1.1330    0.0000 C   0  0  0  0  0  0  0  0  0  0  0  0
    2.3640   -0.4070    0.0000 C   0  0  0  0  0  0  0  0  0  0  0  0
    3.0790   -0.8190    0.0000 C   0  0  0  0  0  0  0  0  0  0  0  0
    1.6500   -0.8190    0.0000 C   0  0  0  0  0  0  0  0  0  0  0  0
    3.0790   -1.6440    0.0000 C   0  0  0  0  0  0  0  0  0  0  0  0
    1.6500   -1.6440    0.0000 C   0  0  0  0  0  0  0  0  0  0  0  0
    2.3640   -2.0570    0.0000 C   0  0  0  0  0  0  0  0  0  0  0  0
  2  3  1  0  0  0  0
  2  4  1  0  0  0  0
  2  5  1  0  0  0  0
  3  1  1  1  0  0  0
  3  4  1  0  0  0  0
  5  6  2  0  0  0  0
  5  7  1  0  0  0  0
  6  8  1  0  0  0  0
  7  9  2  0  0  0  0
  8 10  2  0  0  0  0
  9 10  1  0  0  0  0
M  END
>  <DATABASE_ID>
DB00752

>  <DATABASE_NAME>
drugbank

>  <SMILES>
N[C@@H]1CC1c1ccccc1

>  <INCHI_IDENTIFIER>
InChI=1S/C9H11N/c10-9-6-8(9)7-4-2-1-3-5-7/h1-5,8-9H,6,10H2/t8?,9-/m1/s1

>  <INCHI_KEY>
InChIKey=AELCINSCMGFISI-YGPZHTELSA-N

>  <JCHEM_ACCEPTOR_COUNT>
1

>  <JCHEM_AVERAGE_POLARIZABILITY>
15.334201

>  <JCHEM_BIOAVAILABILITY>
1

>  <JCHEM_DONOR_COUNT>
1

>  <JCHEM_EXACT_MASS>
133.08914

>  <JCHEM_FORMAL_CHARGE>
0

>  <JCHEM_FORMULA>
C9H11N

>  <JCHEM_GHOSE_FILTER>
0

>  <JCHEM_IUPAC>
(1R)-2-phenylcyclopropan-1-amine

>  <ALOGPS_LOGP>
1.5

>  <JCHEM_LOGP>
1.3388824

>  <ALOGPS_LOGS>
-1.95

>  <JCHEM_MASS>
133.19031

>  <JCHEM_MDDR_LIKE_RULE>
0

>  <JCHEM_NUMBER_OF_RINGS>
2

>  <JCHEM_PHYSIOLOGICAL_CHARGE>
1

>  <JCHEM_PKA_STRONGEST_BASIC>
9.6224546

>  <JCHEM_POLAR_SURFACE_AREA>
26.02

>  <JCHEM_REFRACTIVITY>
41.696602

>  <JCHEM_ROTATABLE_BOND_COUNT>
1

>  <JCHEM_RULE_OF_FIVE>
1

>  <ALOGPS_SOLUBILITY>
1.49e+00 g/l

>  <JCHEM_TRADITIONAL_IUPAC>
(1R)-2-phenylcyclopropan-1-amine

>  <JCHEM_VEBER_RULE>
1

>  <DRUGBANK_ID>
DB00752

>  <DRUG_GROUPS>
approved

>  <GENERIC_NAME>
Tranylcypromine

>  <SYNONYMS>
Tranilcipromina; Transamine; Tranylcypromin; Tranylcypromine; Tranylcyprominum

>  <BRANDS>
Jatrosom; Parnate

>  <SALTS>
Tranylcypromine Sulfate

$$$$
Ethotoin
 OpenBabel02121510022D

 15 16  0  0  1  0  0  0  0  0999 V2000
    4.2560    0.1220    0.0000 O   0  0  0  0  0  0  0  0  0  0  0  0
    1.9060    1.8290    0.0000 O   0  0  0  0  0  0  0  0  0  0  0  0
    3.2160    1.1620    0.0000 N   0  0  0  0  0  0  0  0  0  0  0  0
    2.1360    0.3770    0.0000 N   0  0  0  0  0  0  0  0  0  0  0  0
    2.8040   -0.1080    0.0000 C   0  0  3  0  0  0  0  0  0  0  0  0
    3.4710    0.3770    0.0000 C   0  0  0  0  0  0  0  0  0  0  0  0
    2.8040   -0.9330    0.0000 C   0  0  0  0  0  0  0  0  0  0  0  0
    2.3910    1.1620    0.0000 C   0  0  0  0  0  0  0  0  0  0  0  0
    3.7010    1.8290    0.0000 C   0  0  0  0  0  0  0  0  0  0  0  0
    3.5180   -1.3450    0.0000 C   0  0  0  0  0  0  0  0  0  0  0  0
    2.0890   -1.3450    0.0000 C   0  0  0  0  0  0  0  0  0  0  0  0
    3.3660    2.5830    0.0000 C   0  0  0  0  0  0  0  0  0  0  0  0
    3.5180   -2.1700    0.0000 C   0  0  0  0  0  0  0  0  0  0  0  0
    2.0890   -2.1700    0.0000 C   0  0  0  0  0  0  0  0  0  0  0  0
    2.8040   -2.5830    0.0000 C   0  0  0  0  0  0  0  0  0  0  0  0
  1  6  2  0  0  0  0
  2  8  2  0  0  0  0
  3  6  1  0  0  0  0
  3  8  1  0  0  0  0
  3  9  1  0  0  0  0
  4  5  1  0  0  0  0
  4  8  1  0  0  0  0
  5  6  1  0  0  0  0
  5  7  1  0  0  0  0
  7 10  2  0  0  0  0
  7 11  1  0  0  0  0
  9 12  1  0  0  0  0
 10 13  1  0  0  0  0
 11 14  2  0  0  0  0
 13 15  2  0  0  0  0
 14 15  1  0  0  0  0
M  END
>  <DATABASE_ID>
DB00754

>  <DATABASE_NAME>
drugbank

>  <SMILES>
O=C1N(CC)C(=O)NC1c1ccccc1

>  <INCHI_IDENTIFIER>
InChI=1S/C11H12N2O2/c1-2-13-10(14)9(12-11(13)15)8-6-4-3-5-7-8/h3-7,9H,2H2,1H3,(H,12,15)

>  <INCHI_KEY>
InChIKey=SZQIFWWUIBRPBZ-UHFFFAOYSA-N

>  <JCHEM_ACCEPTOR_COUNT>
2

>  <JCHEM_AVERAGE_POLARIZABILITY>
20.682693

>  <JCHEM_BIOAVAILABILITY>
1

>  <JCHEM_DONOR_COUNT>
1

>  <JCHEM_EXACT_MASS>
204.08987

>  <JCHEM_FORMAL_CHARGE>
0

>  <JCHEM_FORMULA>
C11H12N2O2

>  <JCHEM_GHOSE_FILTER>
1

>  <JCHEM_IUPAC>
3-ethyl-5-phenylimidazolidine-2,4-dione

>  <ALOGPS_LOGP>
1.11

>  <JCHEM_LOGP>
1.0666929

>  <ALOGPS_LOGS>
-1.9299999

>  <JCHEM_MASS>
204.2252

>  <JCHEM_MDDR_LIKE_RULE>
0

>  <JCHEM_NUMBER_OF_RINGS>
2

>  <JCHEM_PHYSIOLOGICAL_CHARGE>
0

>  <JCHEM_PKA>
16.229017

>  <JCHEM_PKA_STRONGEST_ACIDIC>
11.288526

>  <JCHEM_PKA_STRONGEST_BASIC>
-8.3730583

>  <JCHEM_POLAR_SURFACE_AREA>
49.41

>  <JCHEM_REFRACTIVITY>
55.049301

>  <JCHEM_ROTATABLE_BOND_COUNT>
2

>  <JCHEM_RULE_OF_FIVE>
1

>  <ALOGPS_SOLUBILITY>
2.38e+00 g/l

>  <JCHEM_TRADITIONAL_IUPAC>
ethotoin

>  <JCHEM_VEBER_RULE>
0

>  <DRUGBANK_ID>
DB00754

>  <DRUG_GROUPS>
approved

>  <GENERIC_NAME>
Ethotoin

>  <SYNONYMS>
Ethotoin; Ethotoïne; Ethotoinum; Etotoina

>  <BRANDS>
Accenon; Peganone; Pegoanone

$$$$
Tretinoin
 OpenBabel02121510022D

 22 22  0  0  0  0  0  0  0  0999 V2000
    2.0930    0.0000    0.0000 O   0  0  0  0  0  0  0  0  0  0  0  0
    2.8080    1.2380    0.0000 O   0  0  0  0  0  0  0  0  0  0  0  0
    9.9520    0.4120    0.0000 C   0  0  0  0  0  0  0  0  0  0  0  0
   10.6670    0.0000    0.0000 C   0  0  0  0  0  0  0  0  0  0  0  0
   10.6670   -0.8250    0.0000 C   0  0  0  0  0  0  0  0  0  0  0  0
    9.2380    0.0000    0.0000 C   0  0  0  0  0  0  0  0  0  0  0  0
    9.9520   -1.2380    0.0000 C   0  0  0  0  0  0  0  0  0  0  0  0
    9.2380   -0.8250    0.0000 C   0  0  0  0  0  0  0  0  0  0  0  0
   10.3650    1.1270    0.0000 C   0  0  0  0  0  0  0  0  0  0  0  0
    9.5400    1.1270    0.0000 C   0  0  0  0  0  0  0  0  0  0  0  0
    8.5230    0.4120    0.0000 C   0  0  0  0  0  0  0  0  0  0  0  0
    8.5230   -1.2380    0.0000 C   0  0  0  0  0  0  0  0  0  0  0  0
    7.8090    0.0000    0.0000 C   0  0  0  0  0  0  0  0  0  0  0  0
    7.0940    0.4120    0.0000 C   0  0  0  0  0  0  0  0  0  0  0  0
    7.0940    1.2380    0.0000 C   0  0  0  0  0  0  0  0  0  0  0  0
    6.3800    0.0000    0.0000 C   0  0  0  0  0  0  0  0  0  0  0  0
    5.6660    0.4120    0.0000 C   0  0  0  0  0  0  0  0  0  0  0  0
    4.9510    0.0000    0.0000 C   0  0  0  0  0  0  0  0  0  0  0  0
    4.2360    0.4120    0.0000 C   0  0  0  0  0  0  0  0  0  0  0  0
    4.2360    1.2380    0.0000 C   0  0  0  0  0  0  0  0  0  0  0  0
    3.5220    0.0000    0.0000 C   0  0  0  0  0  0  0  0  0  0  0  0
    2.8080    0.4120    0.0000 C   0  0  0  0  0  0  0  0  0  0  0  0
  1 22  1  0  0  0  0
  2 22  2  0  0  0  0
  3  4  1  0  0  0  0
  3  6  1  0  0  0  0
  3  9  1  0  0  0  0
  3 10  1  0  0  0  0
  4  5  1  0  0  0  0
  5  7  1  0  0  0  0
  6  8  2  0  0  0  0
  6 11  1  0  0  0  0
  7  8  1  0  0  0  0
  8 12  1  0  0  0  0
 11 13  2  3  0  0  0
 13 14  1  0  0  0  0
 14 15  1  0  0  0  0
 14 16  2  3  0  0  0
 16 17  1  0  0  0  0
 17 18  2  3  0  0  0
 18 19  1  0  0  0  0
 19 20  1  0  0  0  0
 19 21  2  3  0  0  0
 21 22  1  0  0  0  0
M  END
>  <DATABASE_ID>
DB00755

>  <DATABASE_NAME>
drugbank

>  <SMILES>
OC(=O)C=C(C=CC=C(C=CC=1C(CCCC=1C)(C)C)C)C

>  <INCHI_IDENTIFIER>
InChI=1S/C20H28O2/c1-15(8-6-9-16(2)14-19(21)22)11-12-18-17(3)10-7-13-20(18,4)5/h6,8-9,11-12,14H,7,10,13H2,1-5H3,(H,21,22)/b9-6+,12-11+,15-8+,16-14+

>  <INCHI_KEY>
InChIKey=SHGAZHPCJJPHSC-YCNIQYBTSA-N

>  <JCHEM_ACCEPTOR_COUNT>
2

>  <JCHEM_AVERAGE_POLARIZABILITY>
36.619396

>  <JCHEM_BIOAVAILABILITY>
1

>  <JCHEM_DONOR_COUNT>
1

>  <JCHEM_EXACT_MASS>
300.20892

>  <JCHEM_FORMAL_CHARGE>
0

>  <JCHEM_FORMULA>
C20H28O2

>  <JCHEM_GHOSE_FILTER>
1

>  <JCHEM_IUPAC>
3,7-dimethyl-9-(2,6,6-trimethylcyclohex-1-en-1-yl)nona-2,4,6,8-tetraenoic acid

>  <ALOGPS_LOGP>
5.6599998

>  <JCHEM_LOGP>
5.0143676

>  <ALOGPS_LOGS>
-4.8000002

>  <JCHEM_MASS>
300.43509

>  <JCHEM_MDDR_LIKE_RULE>
0

>  <JCHEM_NUMBER_OF_RINGS>
1

>  <JCHEM_PHYSIOLOGICAL_CHARGE>
-1

>  <JCHEM_PKA_STRONGEST_ACIDIC>
4.9966478

>  <JCHEM_POLAR_SURFACE_AREA>
37.299999

>  <JCHEM_REFRACTIVITY>
97.790802

>  <JCHEM_ROTATABLE_BOND_COUNT>
5

>  <JCHEM_RULE_OF_FIVE>
0

>  <ALOGPS_SOLUBILITY>
4.77e-03 g/l

>  <JCHEM_TRADITIONAL_IUPAC>
retinoic acid

>  <JCHEM_VEBER_RULE>
1

>  <DRUGBANK_ID>
DB00755

>  <DRUG_GROUPS>
approved; investigational; nutraceutical

>  <GENERIC_NAME>
Tretinoin

>  <SYNONYMS>
All Trans Retinoic Acid; All Trans-Retinoic Acid; ATRA; Retionic Acid; Tretinoin; Tretinoina; Trétinoïne; Tretinoinum; Vitamin A acid

>  <BRANDS>
Aberel; Aberela; Airol; Amnesteem; Atralin; Avita; Claravis; Dermairol; Eudyna; Kétrel; Refissa; Retin-A; Retisol-A; Sotret; Stieva-A; Tretin-X; TRETIN.X; Vesanoid; Vitinoin

$$$$
Dolasetron
 OpenBabel02121510022D

 25 29  0  0  1  0  0  0  0  0999 V2000
    5.4920    0.7500    0.0000 O   0  0  0  0  0  0  0  0  0  0  0  0
    1.6600    2.2710    0.0000 O   0  0  0  0  0  0  0  0  0  0  0  0
    4.7740   -0.4950    0.0000 O   0  0  0  0  0  0  0  0  0  0  0  0
    3.5760    1.8560    0.0000 N   0  0  3  0  0  0  0  0  0  0  0  0
    7.5180   -0.7700    0.0000 N   0  0  0  0  0  0  0  0  0  0  0  0
    3.5760    1.1650    0.0000 C   0  0  3  0  0  0  0  0  0  0  0  0
    4.1750    2.2020    0.0000 C   0  0  2  0  0  0  0  0  0  0  0  0
    2.3790    1.1650    0.0000 C   0  0  3  0  0  0  0  0  0  0  0  0
    2.9770    0.8190    0.0000 C   0  0  0  0  0  0  0  0  0  0  0  0
    4.1750    2.8930    0.0000 C   0  0  0  0  0  0  0  0  0  0  0  0
    4.1750    0.8190    0.0000 C   0  0  0  0  0  0  0  0  0  0  0  0
    4.7740    1.8560    0.0000 C   0  0  0  0  0  0  0  0  0  0  0  0
    4.7740    1.1650    0.0000 C   0  0  3  0  0  0  0  0  0  0  0  0
    2.9770    2.2020    0.0000 C   0  0  0  0  0  0  0  0  0  0  0  0
    2.3790    1.8560    0.0000 C   0  0  0  0  0  0  0  0  0  0  0  0
    5.4920   -0.0800    0.0000 C   0  0  0  0  0  0  0  0  0  0  0  0
    6.2110   -0.4950    0.0000 C   0  0  0  0  0  0  0  0  0  0  0  0
    6.2970   -1.3160    0.0000 C   0  0  0  0  0  0  0  0  0  0  0  0
    6.9640   -0.1590    0.0000 C   0  0  0  0  0  0  0  0  0  0  0  0
    7.1090   -1.4870    0.0000 C   0  0  0  0  0  0  0  0  0  0  0  0
    5.7420   -1.9330    0.0000 C   0  0  0  0  0  0  0  0  0  0  0  0
    7.3660   -2.2760    0.0000 C   0  0  0  0  0  0  0  0  0  0  0  0
    6.0000   -2.7220    0.0000 C   0  0  0  0  0  0  0  0  0  0  0  0
    6.8120   -2.8930    0.0000 C   0  0  0  0  0  0  0  0  0  0  0  0
    4.7500    2.5340    0.0000 H   0  0  0  0  0  0  0  0  0  0  0  0
  1 13  1  0  0  0  0
  1 16  1  0  0  0  0
  2 15  2  0  0  0  0
  3 16  2  0  0  0  0
  4  6  1  0  0  0  0
  4  7  1  0  0  0  0
  4 14  1  0  0  0  0
  5 19  1  0  0  0  0
  5 20  1  0  0  0  0
  6  9  1  0  0  0  0
  6 11  1  0  0  0  0
  7 10  1  0  0  0  0
  7 12  1  0  0  0  0
  7 25  1  1  0  0  0
  8  9  1  0  0  0  0
  8 10  1  0  0  0  0
  8 15  1  0  0  0  0
 11 13  1  0  0  0  0
 12 13  1  0  0  0  0
 14 15  1  0  0  0  0
 16 17  1  0  0  0  0
 17 18  1  0  0  0  0
 17 19  2  0  0  0  0
 18 20  1  0  0  0  0
 18 21  2  0  0  0  0
 20 22  2  0  0  0  0
 21 23  1  0  0  0  0
 22 24  1  0  0  0  0
 23 24  2  0  0  0  0
M  END
>  <DATABASE_ID>
DB00757

>  <DATABASE_NAME>
drugbank

>  <SMILES>
O(C(=O)c1c2c([nH]c1)cccc2)C1CC2N3[C@@H](C1)CC(C2)C(=O)C3

>  <INCHI_IDENTIFIER>
InChI=1S/C19H20N2O3/c22-18-10-21-12-5-11(18)6-13(21)8-14(7-12)24-19(23)16-9-20-17-4-2-1-3-15(16)17/h1-4,9,11-14,20H,5-8,10H2/t11?,12-,13?,14?/m1/s1

>  <INCHI_KEY>
InChIKey=UKTAZPQNNNJVKR-DBBXXEFVSA-N

>  <JCHEM_ACCEPTOR_COUNT>
3

>  <JCHEM_AVERAGE_POLARIZABILITY>
33.688763

>  <JCHEM_BIOAVAILABILITY>
1

>  <JCHEM_DONOR_COUNT>
1

>  <JCHEM_EXACT_MASS>
324.1474

>  <JCHEM_FORMAL_CHARGE>
0

>  <JCHEM_FORMULA>
C19H20N2O3

>  <JCHEM_GHOSE_FILTER>
1

>  <JCHEM_IUPAC>
(3R)-10-oxo-8-azatricyclo[5.3.1.0^{3,8}]undecan-5-yl 1H-indole-3-carboxylate

>  <ALOGPS_LOGP>
2.4100001

>  <JCHEM_LOGP>
2.3258903

>  <ALOGPS_LOGS>
-3.0899999

>  <JCHEM_MASS>
324.37369

>  <JCHEM_MDDR_LIKE_RULE>
0

>  <JCHEM_NUMBER_OF_RINGS>
5

>  <JCHEM_PHYSIOLOGICAL_CHARGE>
0

>  <JCHEM_PKA>
18.246578

>  <JCHEM_PKA_STRONGEST_ACIDIC>
12.182265

>  <JCHEM_PKA_STRONGEST_BASIC>
6.8835549

>  <JCHEM_POLAR_SURFACE_AREA>
62.400002

>  <JCHEM_REFRACTIVITY>
89.335197

>  <JCHEM_ROTATABLE_BOND_COUNT>
3

>  <JCHEM_RULE_OF_FIVE>
1

>  <ALOGPS_SOLUBILITY>
2.61e-01 g/l

>  <JCHEM_TRADITIONAL_IUPAC>
(3R)-10-oxo-8-azatricyclo[5.3.1.0^{3,8}]undecan-5-yl 1H-indole-3-carboxylate

>  <JCHEM_VEBER_RULE>
0

>  <DRUGBANK_ID>
DB00757

>  <DRUG_GROUPS>
approved

>  <GENERIC_NAME>
Dolasetron

>  <SYNONYMS>
Dolasetron; Dolasétron; Dolasetron; Dolasetronum

>  <BRANDS>
Anemet; Anzemet; Zamanon

>  <SALTS>
Dolasetron Mesylate

$$$$
Clopidogrel
 OpenBabel02121510022D

 22 24  0  0  1  0  0  0  0  0999 V2000
    2.3640    0.6190    0.0000 Cl  0  0  0  0  0  0  0  0  0  0  0  0
    6.7180   -1.6950    0.0000 S   0  0  0  0  0  0  0  0  0  0  0  0
    4.5080   -0.6190    0.0000 N   0  0  0  0  0  0  0  0  0  0  0  0
    4.5080   -1.4440    0.0000 C   0  0  0  0  0  0  0  0  0  0  0  0
    5.2220   -0.2060    0.0000 C   0  0  0  0  0  0  0  0  0  0  0  0
    3.7940   -0.2060    0.0000 C   0  0  1  0  0  0  0  0  0  0  0  0
    5.2220   -1.8560    0.0000 C   0  0  0  0  0  0  0  0  0  0  0  0
    5.9370   -0.6190    0.0000 C   0  0  0  0  0  0  0  0  0  0  0  0
    5.9370   -1.4440    0.0000 C   0  0  0  0  0  0  0  0  0  0  0  0
    3.0790   -0.6190    0.0000 C   0  0  0  0  0  0  0  0  0  0  0  0
    6.7180   -0.3670    0.0000 C   0  0  0  0  0  0  0  0  0  0  0  0
    7.1990   -1.0310    0.0000 C   0  0  0  0  0  0  0  0  0  0  0  0
    2.3640   -0.2060    0.0000 C   0  0  0  0  0  0  0  0  0  0  0  0
    3.0790   -1.4440    0.0000 C   0  0  0  0  0  0  0  0  0  0  0  0
    1.6500   -0.6190    0.0000 C   0  0  0  0  0  0  0  0  0  0  0  0
    2.3640   -1.8560    0.0000 C   0  0  0  0  0  0  0  0  0  0  0  0
    1.6500   -1.4440    0.0000 C   0  0  0  0  0  0  0  0  0  0  0  0
    3.7940    0.6190    0.0000 C   0  0  0  0  0  0  0  0  0  0  0  0
    3.0790    1.0310    0.0000 O   0  0  0  0  0  0  0  0  0  0  0  0
    4.5080    1.0310    0.0000 O   0  0  0  0  0  0  0  0  0  0  0  0
    5.2220    1.4440    0.0000 C   0  0  0  0  0  0  0  0  0  0  0  0
    4.0070   -1.0030    0.0000 H   0  0  0  0  0  0  0  0  0  0  0  0
  1 13  1  0  0  0  0
  2  9  1  0  0  0  0
  2 12  1  0  0  0  0
  3  4  1  0  0  0  0
  3  5  1  0  0  0  0
  3  6  1  0  0  0  0
  4  7  1  0  0  0  0
  5  8  1  0  0  0  0
  6 10  1  0  0  0  0
  6 18  1  0  0  0  0
  6 22  1  6  0  0  0
  7  9  1  0  0  0  0
  8  9  2  0  0  0  0
  8 11  1  0  0  0  0
 10 13  1  0  0  0  0
 10 14  2  0  0  0  0
 11 12  2  0  0  0  0
 13 15  2  0  0  0  0
 14 16  1  0  0  0  0
 15 17  1  0  0  0  0
 16 17  2  0  0  0  0
 18 19  2  0  0  0  0
 18 20  1  0  0  0  0
 20 21  1  0  0  0  0
M  END
>  <DATABASE_ID>
DB00758

>  <DATABASE_NAME>
drugbank

>  <SMILES>
Clc1ccccc1[C@H](N1CCc2sccc2C1)C(OC)=O

>  <INCHI_IDENTIFIER>
InChI=1S/C16H16ClNO2S/c1-20-16(19)15(12-4-2-3-5-13(12)17)18-8-6-14-11(10-18)7-9-21-14/h2-5,7,9,15H,6,8,10H2,1H3/t15-/m0/s1

>  <INCHI_KEY>
InChIKey=GKTWGGQPFAXNFI-HNNXBMFYSA-N

>  <JCHEM_ACCEPTOR_COUNT>
2

>  <JCHEM_AVERAGE_POLARIZABILITY>
33.186031

>  <JCHEM_BIOAVAILABILITY>
1

>  <JCHEM_DONOR_COUNT>
0

>  <JCHEM_EXACT_MASS>
321.05902

>  <JCHEM_FORMAL_CHARGE>
0

>  <JCHEM_FORMULA>
C16H16ClNO2S

>  <JCHEM_GHOSE_FILTER>
1

>  <JCHEM_IUPAC>
methyl (2S)-2-(2-chlorophenyl)-2-{4H,5H,6H,7H-thieno[3,2-c]pyridin-5-yl}acetate

>  <ALOGPS_LOGP>
3.8399999

>  <JCHEM_LOGP>
4.031764

>  <ALOGPS_LOGS>
-4.4299998

>  <JCHEM_MASS>
321.82199

>  <JCHEM_MDDR_LIKE_RULE>
0

>  <JCHEM_NUMBER_OF_RINGS>
3

>  <JCHEM_PHYSIOLOGICAL_CHARGE>
0

>  <JCHEM_PKA_STRONGEST_BASIC>
5.1375403

>  <JCHEM_POLAR_SURFACE_AREA>
29.540001

>  <JCHEM_REFRACTIVITY>
84.927002

>  <JCHEM_ROTATABLE_BOND_COUNT>
4

>  <JCHEM_RULE_OF_FIVE>
1

>  <ALOGPS_SOLUBILITY>
1.18e-02 g/l

>  <JCHEM_TRADITIONAL_IUPAC>
clopidogrel

>  <JCHEM_VEBER_RULE>
1

>  <DRUGBANK_ID>
DB00758

>  <DRUG_GROUPS>
approved; nutraceutical

>  <GENERIC_NAME>
Clopidogrel

>  <BRANDS>
Plavix

>  <SALTS>
Clopidogrel Bisulfate

$$$$
Tetracycline
 OpenBabel02121510022D

 34 37  0  0  1  0  0  0  0  0999 V2000
   -1.4290   -0.3400    0.0000 C   0  0  0  0  0  0  0  0  0  0  0  0
   -1.4290    0.4850    0.0000 C   0  0  0  0  0  0  0  0  0  0  0  0
    1.4290   -0.3400    0.0000 C   0  0  1  0  0  0  0  0  0  0  0  0
    1.4290    0.4850    0.0000 C   0  0  2  0  0  0  0  0  0  0  0  0
    0.7140   -0.7520    0.0000 C   0  0  0  0  0  0  0  0  0  0  0  0
    0.7140    0.8980    0.0000 C   0  0  0  0  0  0  0  0  0  0  0  0
    0.0000   -0.3400    0.0000 C   0  0  1  0  0  0  0  0  0  0  0  0
    0.0000    0.4850    0.0000 C   0  0  0  0  0  0  0  0  0  0  0  0
   -0.7140    0.8980    0.0000 C   0  0  0  0  0  0  0  0  0  0  0  0
   -0.7140   -0.7520    0.0000 C   0  0  2  0  0  0  0  0  0  0  0  0
    2.1430   -0.7520    0.0000 C   0  0  1  0  0  0  0  0  0  0  0  0
    2.1430    0.8980    0.0000 C   0  0  0  0  0  0  0  0  0  0  0  0
    1.4290    1.3100    0.0000 O   0  0  0  0  0  0  0  0  0  0  0  0
    2.8580   -0.3400    0.0000 C   0  0  0  0  0  0  0  0  0  0  0  0
    2.1430   -1.5770    0.0000 N   0  0  0  0  0  0  0  0  0  0  0  0
    0.7140    1.7230    0.0000 O   0  0  0  0  0  0  0  0  0  0  0  0
    2.8580    0.4850    0.0000 C   0  0  0  0  0  0  0  0  0  0  0  0
    2.1430    1.7230    0.0000 O   0  0  0  0  0  0  0  0  0  0  0  0
    3.5720   -0.7520    0.0000 O   0  0  0  0  0  0  0  0  0  0  0  0
    2.8580   -1.9900    0.0000 C   0  0  0  0  0  0  0  0  0  0  0  0
    1.4290   -1.9900    0.0000 C   0  0  0  0  0  0  0  0  0  0  0  0
    3.5720    0.8980    0.0000 C   0  0  0  0  0  0  0  0  0  0  0  0
   -0.7140    1.7230    0.0000 O   0  0  0  0  0  0  0  0  0  0  0  0
    4.2870    0.4850    0.0000 N   0  0  0  0  0  0  0  0  0  0  0  0
    3.5720    1.7230    0.0000 O   0  0  0  0  0  0  0  0  0  0  0  0
   -2.1430   -0.7520    0.0000 C   0  0  0  0  0  0  0  0  0  0  0  0
   -2.1430    0.8980    0.0000 C   0  0  0  0  0  0  0  0  0  0  0  0
   -2.8580   -0.3400    0.0000 C   0  0  0  0  0  0  0  0  0  0  0  0
   -2.8580    0.4850    0.0000 C   0  0  0  0  0  0  0  0  0  0  0  0
   -2.1430    1.7230    0.0000 O   0  0  0  0  0  0  0  0  0  0  0  0
    1.4290   -1.1650    0.0000 H   0  0  0  0  0  0  0  0  0  0  0  0
    0.0000   -1.1650    0.0000 H   0  0  0  0  0  0  0  0  0  0  0  0
   -1.4290   -1.1650    0.0000 O   0  0  0  0  0  0  0  0  0  0  0  0
   -0.7140   -1.5770    0.0000 C   0  0  0  0  0  0  0  0  0  0  0  0
  1  2  2  0  0  0  0
  1 10  1  0  0  0  0
  1 26  1  0  0  0  0
  2  9  1  0  0  0  0
  2 27  1  0  0  0  0
  3  4  1  0  0  0  0
  3  5  1  0  0  0  0
  3 11  1  0  0  0  0
  3 31  1  1  0  0  0
  4  6  1  0  0  0  0
  4 12  1  0  0  0  0
  4 13  1  1  0  0  0
  5  7  1  0  0  0  0
  6  8  2  0  0  0  0
  6 16  1  0  0  0  0
  7  8  1  0  0  0  0
  7 10  1  0  0  0  0
  7 32  1  1  0  0  0
  8  9  1  0  0  0  0
  9 23  2  0  0  0  0
 10 33  1  6  0  0  0
 10 34  1  0  0  0  0
 11 14  1  0  0  0  0
 11 15  1  1  0  0  0
 12 17  1  0  0  0  0
 12 18  2  0  0  0  0
 14 17  2  0  0  0  0
 14 19  1  0  0  0  0
 15 20  1  0  0  0  0
 15 21  1  0  0  0  0
 17 22  1  0  0  0  0
 22 24  1  0  0  0  0
 22 25  2  0  0  0  0
 26 28  2  0  0  0  0
 27 29  2  0  0  0  0
 27 30  1  0  0  0  0
 28 29  1  0  0  0  0
M  END
>  <DATABASE_ID>
DB00759

>  <DATABASE_NAME>
drugbank

>  <SMILES>
OC=1[C@@H](N(C)C)[C@@H]2C[C@H]3C(=C(O)[C@]2(O)C(=O)C=1C(=O)N)C(=O)c1c(cccc1O)[C@]3(O)C

>  <INCHI_IDENTIFIER>
InChI=1S/C22H24N2O8/c1-21(31)8-5-4-6-11(25)12(8)16(26)13-9(21)7-10-15(24(2)3)17(27)14(20(23)30)19(29)22(10,32)18(13)28/h4-6,9-10,15,25,27-28,31-32H,7H2,1-3H3,(H2,23,30)/t9-,10-,15-,21+,22-/m0/s1

>  <INCHI_KEY>
InChIKey=OFVLGDICTFRJMM-WESIUVDSSA-N

>  <JCHEM_ACCEPTOR_COUNT>
9

>  <JCHEM_AVERAGE_POLARIZABILITY>
43.026905

>  <JCHEM_BIOAVAILABILITY>
1

>  <JCHEM_DONOR_COUNT>
6

>  <JCHEM_EXACT_MASS>
444.15326

>  <JCHEM_FORMAL_CHARGE>
0

>  <JCHEM_FORMULA>
C22H24N2O8

>  <JCHEM_GHOSE_FILTER>
0

>  <JCHEM_IUPAC>
(4S,4aS,5aS,6S,12aS)-4-(dimethylamino)-3,6,10,12,12a-pentahydroxy-6-methyl-1,11-dioxo-1,4,4a,5,5a,6,11,12a-octahydrotetracene-2-carboxamide

>  <ALOGPS_LOGP>
-0.56

>  <JCHEM_LOGP>
-3.5476153

>  <ALOGPS_LOGS>
-2.52

>  <JCHEM_MASS>
444.4346

>  <JCHEM_MDDR_LIKE_RULE>
0

>  <JCHEM_NUMBER_OF_RINGS>
4

>  <JCHEM_PHYSIOLOGICAL_CHARGE>
-1

>  <JCHEM_PKA>
4.6705403

>  <JCHEM_PKA_STRONGEST_ACIDIC>
-2.2437224

>  <JCHEM_PKA_STRONGEST_BASIC>
8.2435589

>  <JCHEM_POLAR_SURFACE_AREA>
181.62

>  <JCHEM_REFRACTIVITY>
114.1883

>  <JCHEM_ROTATABLE_BOND_COUNT>
2

>  <JCHEM_RULE_OF_FIVE>
0

>  <ALOGPS_SOLUBILITY>
1.33e+00 g/l

>  <JCHEM_TRADITIONAL_IUPAC>
tetracycline

>  <JCHEM_VEBER_RULE>
0

>  <DRUGBANK_ID>
DB00759

>  <DRUG_GROUPS>
approved

>  <GENERIC_NAME>
Tetracycline

>  <SYNONYMS>
Anhydrotetracycline; Deschlorobiomycin

>  <BRANDS>
Achromycin

>  <SALTS>
Tetracycline hydrochloride

$$$$
Potassium Chloride
 OpenBabel02121510022D

  2  0  0  0  0  0  0  0  0  0999 V2000
    0.0000    0.0000    0.0000 K   0  3  0  0  0 15  0  0  0  0  0  0
    1.0000    0.0000    0.0000 Cl  0  5  0  0  0  0  0  0  0  0  0  0
M  CHG  2   1   1   2  -1
M  END
>  <DATABASE_ID>
DB00761

>  <DATABASE_NAME>
drugbank

>  <SMILES>
[K+].[Cl-]

>  <INCHI_IDENTIFIER>
InChI=1S/ClH.K/h1H;/q;+1/p-1

>  <INCHI_KEY>
InChIKey=WCUXLLCKKVVCTQ-UHFFFAOYSA-M

>  <JCHEM_ACCEPTOR_COUNT>
0

>  <JCHEM_AVERAGE_POLARIZABILITY>
1.7783999

>  <JCHEM_BIOAVAILABILITY>
1

>  <JCHEM_DONOR_COUNT>
0

>  <JCHEM_EXACT_MASS>
73.932556

>  <JCHEM_FORMAL_CHARGE>
0

>  <JCHEM_FORMULA>
ClK

>  <JCHEM_GHOSE_FILTER>
0

>  <JCHEM_IUPAC>
potassium chloride

>  <JCHEM_LOGP>
0.2

>  <JCHEM_MASS>
74.551003

>  <JCHEM_MDDR_LIKE_RULE>
0

>  <JCHEM_NUMBER_OF_RINGS>
0

>  <JCHEM_PHYSIOLOGICAL_CHARGE>
-1

>  <JCHEM_PKA_STRONGEST_ACIDIC>
-7

>  <JCHEM_POLAR_SURFACE_AREA>
0

>  <JCHEM_REFRACTIVITY>
0

>  <JCHEM_ROTATABLE_BOND_COUNT>
0

>  <JCHEM_RULE_OF_FIVE>
1

>  <JCHEM_TRADITIONAL_IUPAC>
potassium chloride

>  <JCHEM_VEBER_RULE>
1

>  <DRUGBANK_ID>
DB00761

>  <DRUG_GROUPS>
approved; withdrawn

>  <GENERIC_NAME>
Potassium Chloride

>  <SYNONYMS>
Chlorid draselny; Chloride of potash; Kaliumchlorid; Monopotassium chloride; Muriate of potash; Sylvite

>  <BRANDS>
K-Dur; K-Tab; Kaon Cl; Klor-Con; Klotrix; Micro-K; Sando-K; Slow-K

$$$$
Methimazole
 OpenBabel02121510022D

  7  7  0  0  0  0  0  0  0  0999 V2000
    3.7700   -0.1990    0.0000 S   0  0  0  0  0  0  0  0  0  0  0  0
    2.3180   -0.4290    0.0000 N   0  0  0  0  0  0  0  0  0  0  0  0
    2.7300    0.8400    0.0000 N   0  0  0  0  0  0  0  0  0  0  0  0
    2.9850    0.0560    0.0000 C   0  0  0  0  0  0  0  0  0  0  0  0
    1.6500    0.0560    0.0000 C   0  0  0  0  0  0  0  0  0  0  0  0
    2.3180   -1.2540    0.0000 C   0  0  0  0  0  0  0  0  0  0  0  0
    1.9050    0.8400    0.0000 C   0  0  0  0  0  0  0  0  0  0  0  0
  1  4  2  0  0  0  0
  2  4  1  0  0  0  0
  2  5  1  0  0  0  0
  2  6  1  0  0  0  0
  3  4  1  0  0  0  0
  3  7  1  0  0  0  0
  5  7  2  0  0  0  0
M  END
>  <DATABASE_ID>
DB00763

>  <DATABASE_NAME>
drugbank

>  <SMILES>
S=C1NC=CN1C

>  <INCHI_IDENTIFIER>
InChI=1S/C4H6N2S/c1-6-3-2-5-4(6)7/h2-3H,1H3,(H,5,7)

>  <INCHI_KEY>
InChIKey=PMRYVIKBURPHAH-UHFFFAOYSA-N

>  <JCHEM_ACCEPTOR_COUNT>
0

>  <JCHEM_AVERAGE_POLARIZABILITY>
11.638334

>  <JCHEM_BIOAVAILABILITY>
1

>  <JCHEM_DONOR_COUNT>
1

>  <JCHEM_EXACT_MASS>
114.02517

>  <JCHEM_FORMAL_CHARGE>
0

>  <JCHEM_FORMULA>
C4H6N2S

>  <JCHEM_GHOSE_FILTER>
0

>  <JCHEM_IUPAC>
1-methyl-2,3-dihydro-1H-imidazole-2-thione

>  <ALOGPS_LOGP>
-0.38

>  <JCHEM_LOGP>
0.7456705

>  <ALOGPS_LOGS>
-1

>  <JCHEM_MASS>
114.169

>  <JCHEM_MDDR_LIKE_RULE>
0

>  <JCHEM_NUMBER_OF_RINGS>
1

>  <JCHEM_PHYSIOLOGICAL_CHARGE>
0

>  <JCHEM_PKA_STRONGEST_ACIDIC>
10.411967

>  <JCHEM_PKA_STRONGEST_BASIC>
-3

>  <JCHEM_POLAR_SURFACE_AREA>
15.27

>  <JCHEM_REFRACTIVITY>
33.232201

>  <JCHEM_ROTATABLE_BOND_COUNT>
0

>  <JCHEM_RULE_OF_FIVE>
1

>  <ALOGPS_SOLUBILITY>
1.13e+01 g/l

>  <JCHEM_TRADITIONAL_IUPAC>
methimazole

>  <JCHEM_VEBER_RULE>
1

>  <DRUGBANK_ID>
DB00763

>  <DRUG_GROUPS>
approved

>  <GENERIC_NAME>
Methimazole

>  <SYNONYMS>
Mercazolyl; Thiamazol; Thiamazole; Thiamazolum; Tiamazol

>  <BRANDS>
Danantizol; Favistan; Metizol; Strumazol; Strumazole; Tapazole; Thacapzol; Thycapzol; Thyrozol; Tirozol

$$$$
Metyrosine
 OpenBabel02121510022D

 14 14  0  0  1  0  0  0  0  0999 V2000
    3.7940    2.4750    0.0000 O   0  0  0  0  0  0  0  0  0  0  0  0
    4.5080    1.2380    0.0000 O   0  0  0  0  0  0  0  0  0  0  0  0
    2.3640   -2.4750    0.0000 O   0  0  0  0  0  0  0  0  0  0  0  0
    2.6660    1.9520    0.0000 N   0  0  0  0  0  0  0  0  0  0  0  0
    3.0790    1.2380    0.0000 C   0  0  2  0  0  0  0  0  0  0  0  0
    2.3640    0.8250    0.0000 C   0  0  0  0  0  0  0  0  0  0  0  0
    2.3640    0.0000    0.0000 C   0  0  0  0  0  0  0  0  0  0  0  0
    3.4920    0.5230    0.0000 C   0  0  0  0  0  0  0  0  0  0  0  0
    3.7940    1.6500    0.0000 C   0  0  0  0  0  0  0  0  0  0  0  0
    3.0790   -0.4120    0.0000 C   0  0  0  0  0  0  0  0  0  0  0  0
    1.6500   -0.4120    0.0000 C   0  0  0  0  0  0  0  0  0  0  0  0
    3.0790   -1.2380    0.0000 C   0  0  0  0  0  0  0  0  0  0  0  0
    1.6500   -1.2380    0.0000 C   0  0  0  0  0  0  0  0  0  0  0  0
    2.3640   -1.6500    0.0000 C   0  0  0  0  0  0  0  0  0  0  0  0
  1  9  1  0  0  0  0
  2  9  2  0  0  0  0
  3 14  1  0  0  0  0
  5  4  1  1  0  0  0
  5  6  1  0  0  0  0
  5  8  1  0  0  0  0
  5  9  1  0  0  0  0
  6  7  1  0  0  0  0
  7 10  1  0  0  0  0
  7 11  2  0  0  0  0
 10 12  2  0  0  0  0
 11 13  1  0  0  0  0
 12 14  1  0  0  0  0
 13 14  2  0  0  0  0
M  END
>  <DATABASE_ID>
DB00765

>  <DATABASE_NAME>
drugbank

>  <SMILES>
Oc1ccc(cc1)C[C@](N)(C(O)=O)C

>  <INCHI_IDENTIFIER>
InChI=1S/C10H13NO3/c1-10(11,9(13)14)6-7-2-4-8(12)5-3-7/h2-5,12H,6,11H2,1H3,(H,13,14)/t10-/m0/s1

>  <INCHI_KEY>
InChIKey=NHTGHBARYWONDQ-JTQLQIEISA-N

>  <JCHEM_ACCEPTOR_COUNT>
4

>  <JCHEM_AVERAGE_POLARIZABILITY>
19.898169

>  <JCHEM_BIOAVAILABILITY>
1

>  <JCHEM_DONOR_COUNT>
3

>  <JCHEM_EXACT_MASS>
195.08954

>  <JCHEM_FORMAL_CHARGE>
0

>  <JCHEM_FORMULA>
C10H13NO3

>  <JCHEM_GHOSE_FILTER>
0

>  <JCHEM_IUPAC>
(2S)-2-amino-3-(4-hydroxyphenyl)-2-methylpropanoic acid

>  <ALOGPS_LOGP>
-1.91

>  <JCHEM_LOGP>
-1.0558642

>  <ALOGPS_LOGS>
-1.9

>  <JCHEM_MASS>
195.2151

>  <JCHEM_MDDR_LIKE_RULE>
0

>  <JCHEM_NUMBER_OF_RINGS>
1

>  <JCHEM_PHYSIOLOGICAL_CHARGE>
0

>  <JCHEM_PKA>
9.2938375

>  <JCHEM_PKA_STRONGEST_ACIDIC>
2.0631347

>  <JCHEM_PKA_STRONGEST_BASIC>
9.9269352

>  <JCHEM_POLAR_SURFACE_AREA>
83.550003

>  <JCHEM_REFRACTIVITY>
51.810501

>  <JCHEM_ROTATABLE_BOND_COUNT>
3

>  <JCHEM_RULE_OF_FIVE>
1

>  <ALOGPS_SOLUBILITY>
2.48e+00 g/l

>  <JCHEM_TRADITIONAL_IUPAC>
metyrosine

>  <JCHEM_VEBER_RULE>
0

>  <DRUGBANK_ID>
DB00765

>  <DRUG_GROUPS>
approved

>  <GENERIC_NAME>
Metyrosine

>  <SYNONYMS>
Metirosin; Metirosina; Métirosine; Metirosine; Metirosinum

>  <BRANDS>
Demser

$$$$
Etoposide
 OpenBabel02121510022D

 46 52  0  0  1  0  0  0  0  0999 V2000
    3.5220   -0.2350    0.0000 O   0  0  0  0  0  0  0  0  0  0  0  0
    5.9390    0.6520    0.0000 O   0  0  0  0  0  0  0  0  0  0  0  0
    4.2360    1.0030    0.0000 O   0  0  0  0  0  0  0  0  0  0  0  0
    3.5090    3.1000    0.0000 O   0  0  0  0  0  0  0  0  0  0  0  0
    7.0810   -0.2670    0.0000 O   0  0  0  0  0  0  0  0  0  0  0  0
    2.0930    0.5900    0.0000 O   0  0  0  0  0  0  0  0  0  0  0  0
    4.9940    3.1050    0.0000 O   0  0  0  0  0  0  0  0  0  0  0  0
    2.0930    2.2400    0.0000 O   0  0  0  0  0  0  0  0  0  0  0  0
    2.8460   -3.3230    0.0000 O   0  0  0  0  0  0  0  0  0  0  0  0
    4.0440   -4.0150    0.0000 O   0  0  0  0  0  0  0  0  0  0  0  0
    7.0940   -3.9470    0.0000 O   0  0  0  0  0  0  0  0  0  0  0  0
    8.5230   -1.4720    0.0000 O   0  0  0  0  0  0  0  0  0  0  0  0
    8.5230   -3.1220    0.0000 O   0  0  0  0  0  0  0  0  0  0  0  0
    4.9510   -0.2350    0.0000 C   0  0  1  0  0  0  0  0  0  0  0  0
    5.6660   -0.6470    0.0000 C   0  0  1  0  0  0  0  0  0  0  0  0
    4.2360   -0.6470    0.0000 C   0  0  1  0  0  0  0  0  0  0  0  0
    5.6660   -1.4720    0.0000 C   0  0  1  0  0  0  0  0  0  0  0  0
    4.2360   -1.4720    0.0000 C   0  0  0  0  0  0  0  0  0  0  0  0
    4.9510   -1.8850    0.0000 C   0  0  0  0  0  0  0  0  0  0  0  0
    5.1240    0.5670    0.0000 C   0  0  0  0  0  0  0  0  0  0  0  0
    6.2740   -0.0970    0.0000 C   0  0  0  0  0  0  0  0  0  0  0  0
    3.5220    0.5900    0.0000 C   0  0  2  0  0  0  0  0  0  0  0  0
    6.3800   -1.8850    0.0000 C   0  0  0  0  0  0  0  0  0  0  0  0
    2.8080    1.0030    0.0000 C   0  0  1  0  0  0  0  0  0  0  0  0
    3.5220    2.2400    0.0000 C   0  0  1  0  0  0  0  0  0  0  0  0
    2.8080    1.8280    0.0000 C   0  0  2  0  0  0  0  0  0  0  0  0
    4.2360    1.8280    0.0000 C   0  0  1  0  0  0  0  0  0  0  0  0
    3.4860   -1.8900    0.0000 C   0  0  0  0  0  0  0  0  0  0  0  0
    4.9640   -2.7440    0.0000 C   0  0  0  0  0  0  0  0  0  0  0  0
    4.9870    2.2460    0.0000 C   0  0  0  0  0  0  0  0  0  0  0  0
    3.4790   -2.7500    0.0000 C   0  0  0  0  0  0  0  0  0  0  0  0
    4.2230   -3.1800    0.0000 C   0  0  0  0  0  0  0  0  0  0  0  0
    7.0940   -1.4720    0.0000 C   0  0  0  0  0  0  0  0  0  0  0  0
    6.3800   -2.7100    0.0000 C   0  0  0  0  0  0  0  0  0  0  0  0
    4.2500    3.5350    0.0000 C   0  0  1  0  0  0  0  0  0  0  0  0
    7.0940   -3.1220    0.0000 C   0  0  0  0  0  0  0  0  0  0  0  0
    7.8090   -1.8850    0.0000 C   0  0  0  0  0  0  0  0  0  0  0  0
    3.1940   -4.1030    0.0000 C   0  0  0  0  0  0  0  0  0  0  0  0
    7.8090   -2.7100    0.0000 C   0  0  0  0  0  0  0  0  0  0  0  0
    4.2460    4.3600    0.0000 C   0  0  0  0  0  0  0  0  0  0  0  0
    6.3800   -4.3600    0.0000 C   0  0  0  0  0  0  0  0  0  0  0  0
    9.2380   -1.8850    0.0000 C   0  0  0  0  0  0  0  0  0  0  0  0
    4.4180    0.1540    0.0000 H   0  0  0  0  0  0  0  0  0  0  0  0
    6.2690   -0.9150    0.0000 H   0  0  0  0  0  0  0  0  0  0  0  0
    2.9480    2.5660    0.0000 H   0  0  0  0  0  0  0  0  0  0  0  0
    4.8060    1.4930    0.0000 H   0  0  0  0  0  0  0  0  0  0  0  0
  2 20  1  0  0  0  0
  2 21  1  0  0  0  0
  3 22  1  0  0  0  0
  3 27  1  0  0  0  0
  4 25  1  0  0  0  0
  4 35  1  0  0  0  0
  5 21  2  0  0  0  0
  7 30  1  0  0  0  0
  7 35  1  0  0  0  0
  9 31  1  0  0  0  0
  9 38  1  0  0  0  0
 10 32  1  0  0  0  0
 10 38  1  0  0  0  0
 11 36  1  0  0  0  0
 11 41  1  0  0  0  0
 12 37  1  0  0  0  0
 12 42  1  0  0  0  0
 13 39  1  0  0  0  0
 14 15  1  0  0  0  0
 14 16  1  0  0  0  0
 14 20  1  0  0  0  0
 14 43  1  6  0  0  0
 15 17  1  0  0  0  0
 15 21  1  0  0  0  0
 15 44  1  1  0  0  0
 16  1  1  1  0  0  0
 16 18  1  0  0  0  0
 17 19  1  0  0  0  0
 17 23  1  6  0  0  0
 18 19  1  0  0  0  0
 18 28  2  0  0  0  0
 19 29  2  0  0  0  0
 22  1  1  1  0  0  0
 22 24  1  0  0  0  0
 23 33  1  0  0  0  0
 23 34  2  0  0  0  0
 24  6  1  6  0  0  0
 24 26  1  0  0  0  0
 25 26  1  0  0  0  0
 25 27  1  0  0  0  0
 25 45  1  1  0  0  0
 26  8  1  1  0  0  0
 27 30  1  0  0  0  0
 27 46  1  6  0  0  0
 28 31  1  0  0  0  0
 29 32  1  0  0  0  0
 31 32  2  0  0  0  0
 33 37  2  0  0  0  0
 34 36  1  0  0  0  0
 35 40  1  6  0  0  0
 36 39  2  0  0  0  0
 37 39  1  0  0  0  0
M  END
>  <DATABASE_ID>
DB00773

>  <DATABASE_NAME>
drugbank

>  <SMILES>
O1C[C@H]2[C@@H]([C@@H](c3c(cc4OCOc4c3)[C@H]2O[C@@H]2O[C@H]3[C@@H](O[C@@H](OC3)C)[C@H](O)[C@H]2O)c2cc(OC)c(O)c(OC)c2)C1=O

>  <INCHI_IDENTIFIER>
InChI=1S/C29H32O13/c1-11-36-9-20-27(40-11)24(31)25(32)29(41-20)42-26-14-7-17-16(38-10-39-17)6-13(14)21(22-15(26)8-37-28(22)33)12-4-18(34-2)23(30)19(5-12)35-3/h4-7,11,15,20-22,24-27,29-32H,8-10H2,1-3H3/t11-,15+,20-,21-,22+,24-,25-,26-,27-,29+/m1/s1

>  <INCHI_KEY>
InChIKey=VJJPUSNTGOMMGY-MRVIYFEKSA-N

>  <JCHEM_ACCEPTOR_COUNT>
12

>  <JCHEM_AVERAGE_POLARIZABILITY>
58.766163

>  <JCHEM_BIOAVAILABILITY>
0

>  <JCHEM_DONOR_COUNT>
3

>  <JCHEM_EXACT_MASS>
588.18427

>  <JCHEM_FORMAL_CHARGE>
0

>  <JCHEM_FORMULA>
C29H32O13

>  <JCHEM_GHOSE_FILTER>
0

>  <JCHEM_IUPAC>
(10R,11R,15R,16S)-16-{[(2R,4aR,6R,7R,8R,8aS)-7,8-dihydroxy-2-methyl-hexahydro-2H-pyrano[3,2-d][1,3]dioxin-6-yl]oxy}-10-(4-hydroxy-3,5-dimethoxyphenyl)-4,6,13-trioxatetracyclo[7.7.0.0^{3,7}.0^{11,15}]hexadeca-1(9),2,7-trien-12-one

>  <ALOGPS_LOGP>
0.73000002

>  <JCHEM_LOGP>
1.1604304

>  <ALOGPS_LOGS>
-2.78

>  <JCHEM_MASS>
588.55658

>  <JCHEM_MDDR_LIKE_RULE>
0

>  <JCHEM_NUMBER_OF_RINGS>
7

>  <JCHEM_PHYSIOLOGICAL_CHARGE>
0

>  <JCHEM_PKA>
12.275621

>  <JCHEM_PKA_STRONGEST_ACIDIC>
9.3299484

>  <JCHEM_PKA_STRONGEST_BASIC>
-3.6854093

>  <JCHEM_POLAR_SURFACE_AREA>
160.83

>  <JCHEM_REFRACTIVITY>
139.02119

>  <JCHEM_ROTATABLE_BOND_COUNT>
5

>  <JCHEM_RULE_OF_FIVE>
0

>  <ALOGPS_SOLUBILITY>
9.78e-01 g/l

>  <JCHEM_TRADITIONAL_IUPAC>
(-)-etoposide

>  <JCHEM_VEBER_RULE>
0

>  <DRUGBANK_ID>
DB00773

>  <DRUG_GROUPS>
approved

>  <GENERIC_NAME>
Etoposide

>  <SYNONYMS>
EPE; EPEG; Epipodophyllotoxin; Etoposid; Etoposide; Etoposido; Etoposidum; VP-16

>  <BRANDS>
Eposin; Etopofos; Etopophos; Lastet; Nexvep; Toposar; Vepesid; Vepesid K; Vépéside

>  <SALTS>
Etoposide Phosphate

$$$$
Hydroflumethiazide
 OpenBabel02121510022D

 20 21  0  0  0  0  0  0  0  0999 V2000
    5.3810   -0.6130    0.0000 S   0  0  0  0  0  0  0  0  0  0  0  0
    2.6840   -0.8040    0.0000 S   0  0  0  0  0  0  0  0  0  0  0  0
    2.0520    0.7550    0.0000 F   0  0  0  0  0  0  0  0  0  0  0  0
    3.3160    1.8150    0.0000 F   0  0  0  0  0  0  0  0  0  0  0  0
    2.1540    1.9170    0.0000 F   0  0  0  0  0  0  0  0  0  0  0  0
    5.7850   -1.3320    0.0000 O   0  0  0  0  0  0  0  0  0  0  0  0
    4.9600   -1.3230    0.0000 O   0  0  0  0  0  0  0  0  0  0  0  0
    2.0520   -0.2740    0.0000 O   0  0  0  0  0  0  0  0  0  0  0  0
    3.3160   -1.3340    0.0000 O   0  0  0  0  0  0  0  0  0  0  0  0
    5.3810    1.0940    0.0000 N   0  0  0  0  0  0  0  0  0  0  0  0
    6.1280   -0.1890    0.0000 N   0  0  0  0  0  0  0  0  0  0  0  0
    2.1540   -1.4360    0.0000 N   0  0  0  0  0  0  0  0  0  0  0  0
    4.6430   -0.1720    0.0000 C   0  0  0  0  0  0  0  0  0  0  0  0
    4.6430    0.6530    0.0000 C   0  0  0  0  0  0  0  0  0  0  0  0
    3.2140   -0.1720    0.0000 C   0  0  0  0  0  0  0  0  0  0  0  0
    3.2140    0.6530    0.0000 C   0  0  0  0  0  0  0  0  0  0  0  0
    3.9290   -0.5850    0.0000 C   0  0  0  0  0  0  0  0  0  0  0  0
    6.1280    0.6700    0.0000 C   0  0  0  0  0  0  0  0  0  0  0  0
    3.9290    1.0650    0.0000 C   0  0  0  0  0  0  0  0  0  0  0  0
    2.6840    1.2850    0.0000 C   0  0  0  0  0  0  0  0  0  0  0  0
  1  6  2  0  0  0  0
  1  7  2  0  0  0  0
  1 11  1  0  0  0  0
  1 13  1  0  0  0  0
  2  8  2  0  0  0  0
  2  9  2  0  0  0  0
  2 12  1  0  0  0  0
  2 15  1  0  0  0  0
  3 20  1  0  0  0  0
  4 20  1  0  0  0  0
  5 20  1  0  0  0  0
 10 14  1  0  0  0  0
 10 18  1  0  0  0  0
 11 18  1  0  0  0  0
 13 14  1  0  0  0  0
 13 17  2  0  0  0  0
 14 19  2  0  0  0  0
 15 16  2  0  0  0  0
 15 17  1  0  0  0  0
 16 19  1  0  0  0  0
 16 20  1  0  0  0  0
M  END
>  <DATABASE_ID>
DB00774

>  <DATABASE_NAME>
drugbank

>  <SMILES>
S(=O)(=O)(N)c1cc2S(=O)(=O)NCNc2cc1C(F)(F)F

>  <INCHI_IDENTIFIER>
InChI=1S/C8H8F3N3O4S2/c9-8(10,11)4-1-5-7(2-6(4)19(12,15)16)20(17,18)14-3-13-5/h1-2,13-14H,3H2,(H2,12,15,16)

>  <INCHI_KEY>
InChIKey=DMDGGSIALPNSEE-UHFFFAOYSA-N

>  <JCHEM_ACCEPTOR_COUNT>
5

>  <JCHEM_AVERAGE_POLARIZABILITY>
25.682968

>  <JCHEM_BIOAVAILABILITY>
1

>  <JCHEM_DONOR_COUNT>
3

>  <JCHEM_EXACT_MASS>
330.99084

>  <JCHEM_FORMAL_CHARGE>
0

>  <JCHEM_FORMULA>
C8H8F3N3O4S2

>  <JCHEM_GHOSE_FILTER>
1

>  <JCHEM_IUPAC>
1,1-dioxo-6-(trifluoromethyl)-3,4-dihydro-2H-1$l^{6},2,4-benzothiadiazine-7-sulfonamide

>  <ALOGPS_LOGP>
0.44

>  <JCHEM_LOGP>
-0.30181396

>  <ALOGPS_LOGS>
-2.5899999

>  <JCHEM_MASS>
331.29199

>  <JCHEM_MDDR_LIKE_RULE>
0

>  <JCHEM_NUMBER_OF_RINGS>
2

>  <JCHEM_PHYSIOLOGICAL_CHARGE>
0

>  <JCHEM_PKA>
10.20255

>  <JCHEM_PKA_STRONGEST_ACIDIC>
9.0659685

>  <JCHEM_PKA_STRONGEST_BASIC>
-2.7383175

>  <JCHEM_POLAR_SURFACE_AREA>
118.36

>  <JCHEM_REFRACTIVITY>
64.278503

>  <JCHEM_ROTATABLE_BOND_COUNT>
2

>  <JCHEM_RULE_OF_FIVE>
1

>  <ALOGPS_SOLUBILITY>
8.58e-01 g/l

>  <JCHEM_TRADITIONAL_IUPAC>
hydroflumethiazide

>  <JCHEM_VEBER_RULE>
0

>  <DRUGBANK_ID>
DB00774

>  <DRUG_GROUPS>
approved

>  <GENERIC_NAME>
Hydroflumethiazide

>  <SYNONYMS>
Dihydroflumethazide; Hidroflumetiazid; Hidroflumetiazida; Hydrofluméthiazide; Hydroflumethiazide; Hydroflumethiazidum; Idroflumetiazide; Metforylthiadiazin

>  <BRANDS>
Leodrine; Saluron

$$$$
Oxcarbazepine
 OpenBabel02121510022D

 19 21  0  0  0  0  0  0  0  0999 V2000
    3.1280    2.0640    0.0000 O   0  0  0  0  0  0  0  0  0  0  0  0
    3.1820   -1.5730    0.0000 O   0  0  0  0  0  0  0  0  0  0  0  0
    3.8680   -0.3850    0.0000 N   0  0  0  0  0  0  0  0  0  0  0  0
    4.5540   -1.5730    0.0000 N   0  0  0  0  0  0  0  0  0  0  0  0
    4.7570    0.7310    0.0000 C   0  0  0  0  0  0  0  0  0  0  0  0
    4.5810   -0.0410    0.0000 C   0  0  0  0  0  0  0  0  0  0  0  0
    4.2640    1.3500    0.0000 C   0  0  0  0  0  0  0  0  0  0  0  0
    3.1540   -0.0410    0.0000 C   0  0  0  0  0  0  0  0  0  0  0  0
    2.9780    0.7310    0.0000 C   0  0  0  0  0  0  0  0  0  0  0  0
    3.4720    1.3500    0.0000 C   0  0  0  0  0  0  0  0  0  0  0  0
    5.5420    0.9860    0.0000 C   0  0  0  0  0  0  0  0  0  0  0  0
    5.1770   -0.6120    0.0000 C   0  0  0  0  0  0  0  0  0  0  0  0
    2.5580   -0.6120    0.0000 C   0  0  0  0  0  0  0  0  0  0  0  0
    2.1930    0.9860    0.0000 C   0  0  0  0  0  0  0  0  0  0  0  0
    3.8680   -1.1770    0.0000 C   0  0  0  0  0  0  0  0  0  0  0  0
    6.1510    0.4300    0.0000 C   0  0  0  0  0  0  0  0  0  0  0  0
    5.9670   -0.3740    0.0000 C   0  0  0  0  0  0  0  0  0  0  0  0
    1.7680   -0.3740    0.0000 C   0  0  0  0  0  0  0  0  0  0  0  0
    1.5840    0.4300    0.0000 C   0  0  0  0  0  0  0  0  0  0  0  0
  1 10  2  0  0  0  0
  2 15  2  0  0  0  0
  3  6  1  0  0  0  0
  3  8  1  0  0  0  0
  3 15  1  0  0  0  0
  4 15  1  0  0  0  0
  5  6  2  0  0  0  0
  5  7  1  0  0  0  0
  5 11  1  0  0  0  0
  6 12  1  0  0  0  0
  7 10  1  0  0  0  0
  8  9  2  0  0  0  0
  8 13  1  0  0  0  0
  9 10  1  0  0  0  0
  9 14  1  0  0  0  0
 11 16  2  0  0  0  0
 12 17  2  0  0  0  0
 13 18  2  0  0  0  0
 14 19  2  0  0  0  0
 16 17  1  0  0  0  0
 18 19  1  0  0  0  0
M  END
>  <DATABASE_ID>
DB00776

>  <DATABASE_NAME>
drugbank

>  <SMILES>
O=C1Cc2c(N(c3c1cccc3)C(=O)N)cccc2

>  <INCHI_IDENTIFIER>
InChI=1S/C15H12N2O2/c16-15(19)17-12-7-3-1-5-10(12)9-14(18)11-6-2-4-8-13(11)17/h1-8H,9H2,(H2,16,19)

>  <INCHI_KEY>
InChIKey=CTRLABGOLIVAIY-UHFFFAOYSA-N

>  <JCHEM_ACCEPTOR_COUNT>
2

>  <JCHEM_AVERAGE_POLARIZABILITY>
25.719637

>  <JCHEM_BIOAVAILABILITY>
1

>  <JCHEM_DONOR_COUNT>
1

>  <JCHEM_EXACT_MASS>
252.08987

>  <JCHEM_FORMAL_CHARGE>
0

>  <JCHEM_FORMULA>
C15H12N2O2

>  <JCHEM_GHOSE_FILTER>
1

>  <JCHEM_IUPAC>
9-oxo-2-azatricyclo[9.4.0.0^{3,8}]pentadeca-1(11),3(8),4,6,12,14-hexaene-2-carboxamide

>  <ALOGPS_LOGP>
1.76

>  <JCHEM_LOGP>
1.8181767

>  <ALOGPS_LOGS>
-3.2

>  <JCHEM_MASS>
252.26801

>  <JCHEM_MDDR_LIKE_RULE>
0

>  <JCHEM_NUMBER_OF_RINGS>
3

>  <JCHEM_PHYSIOLOGICAL_CHARGE>
0

>  <JCHEM_PKA>
15.964849

>  <JCHEM_PKA_STRONGEST_ACIDIC>
12.921005

>  <JCHEM_PKA_STRONGEST_BASIC>
-4.2970004

>  <JCHEM_POLAR_SURFACE_AREA>
63.400002

>  <JCHEM_REFRACTIVITY>
71.557899

>  <JCHEM_ROTATABLE_BOND_COUNT>
0

>  <JCHEM_RULE_OF_FIVE>
1

>  <ALOGPS_SOLUBILITY>
1.60e-01 g/l

>  <JCHEM_TRADITIONAL_IUPAC>
9-oxo-2-azatricyclo[9.4.0.0^{3,8}]pentadeca-1(11),3(8),4,6,12,14-hexaene-2-carboxamide

>  <JCHEM_VEBER_RULE>
0

>  <DRUGBANK_ID>
DB00776

>  <DRUG_GROUPS>
approved

>  <GENERIC_NAME>
Oxcarbazepine

>  <SYNONYMS>
OCBZ; Oxcarbamazepine

>  <BRANDS>
Actinium ; Barzepin; Carbox; Deprectal; Lonazet; Oxalepsy; Oxetol; Oxpin; Oxrate; Oxtellar XR ; Oxypine ; Pharozepine; Prolepsi; Timox ; Trexapin; Trileptal; Trileptin

$$$$
Nalidixic Acid
 OpenBabel02121510022D

 17 18  0  0  1  0  0  0  0  0999 V2000
    4.2360    1.8560    0.0000 O   0  0  0  0  0  0  0  0  0  0  0  0
    2.0930    0.6190    0.0000 O   0  0  0  0  0  0  0  0  0  0  0  0
    2.8080    1.8560    0.0000 O   0  0  0  0  0  0  0  0  0  0  0  0
    4.2360   -0.6190    0.0000 N   0  0  0  0  0  0  0  0  0  0  0  0
    5.6880   -0.6470    0.0000 N   0  0  0  0  0  0  0  0  0  0  0  0
    4.9510   -0.2060    0.0000 C   0  0  0  0  0  0  0  0  0  0  0  0
    4.9510    0.6190    0.0000 C   0  0  0  0  0  0  0  0  0  0  0  0
    4.2360   -1.4440    0.0000 C   0  0  0  0  0  0  0  0  0  0  0  0
    3.5220   -0.2060    0.0000 C   0  0  0  0  0  0  0  0  0  0  0  0
    3.5220    0.6190    0.0000 C   0  0  0  0  0  0  0  0  0  0  0  0
    4.2360    1.0310    0.0000 C   0  0  0  0  0  0  0  0  0  0  0  0
    5.6880    1.0600    0.0000 C   0  0  0  0  0  0  0  0  0  0  0  0
    6.4360   -0.2230    0.0000 C   0  0  0  0  0  0  0  0  0  0  0  0
    3.5220   -1.8560    0.0000 C   0  0  0  0  0  0  0  0  0  0  0  0
    6.4360    0.6360    0.0000 C   0  0  0  0  0  0  0  0  0  0  0  0
    2.8080    1.0310    0.0000 C   0  0  0  0  0  0  0  0  0  0  0  0
    7.1490   -0.6390    0.0000 C   0  0  0  0  0  0  0  0  0  0  0  0
  1 11  2  0  0  0  0
  2 16  1  0  0  0  0
  3 16  2  0  0  0  0
  4  6  1  0  0  0  0
  4  8  1  0  0  0  0
  4  9  1  0  0  0  0
  5  6  1  0  0  0  0
  5 13  2  0  0  0  0
  6  7  2  0  0  0  0
  7 11  1  0  0  0  0
  7 12  1  0  0  0  0
  8 14  1  0  0  0  0
  9 10  2  0  0  0  0
 10 11  1  0  0  0  0
 10 16  1  0  0  0  0
 12 15  2  0  0  0  0
 13 15  1  0  0  0  0
 13 17  1  0  0  0  0
M  END
>  <DATABASE_ID>
DB00779

>  <DATABASE_NAME>
drugbank

>  <SMILES>
O=C1c2ccc(nc2N(C=C1C(O)=O)CC)C

>  <INCHI_IDENTIFIER>
InChI=1S/C12H12N2O3/c1-3-14-6-9(12(16)17)10(15)8-5-4-7(2)13-11(8)14/h4-6H,3H2,1-2H3,(H,16,17)

>  <INCHI_KEY>
InChIKey=MHWLWQUZZRMNGJ-UHFFFAOYSA-N

>  <JCHEM_ACCEPTOR_COUNT>
5

>  <JCHEM_AVERAGE_POLARIZABILITY>
23.649784

>  <JCHEM_BIOAVAILABILITY>
1

>  <JCHEM_DONOR_COUNT>
1

>  <JCHEM_EXACT_MASS>
232.08479

>  <JCHEM_FORMAL_CHARGE>
0

>  <JCHEM_FORMULA>
C12H12N2O3

>  <JCHEM_GHOSE_FILTER>
1

>  <JCHEM_IUPAC>
1-ethyl-7-methyl-4-oxo-1,4-dihydro-1,8-naphthyridine-3-carboxylic acid

>  <ALOGPS_LOGP>
0.94999999

>  <JCHEM_LOGP>
1.0082526

>  <ALOGPS_LOGS>
-2

>  <JCHEM_MASS>
232.23531

>  <JCHEM_MDDR_LIKE_RULE>
0

>  <JCHEM_NUMBER_OF_RINGS>
2

>  <JCHEM_PHYSIOLOGICAL_CHARGE>
-1

>  <JCHEM_PKA_STRONGEST_ACIDIC>
5.950253

>  <JCHEM_PKA_STRONGEST_BASIC>
4.6782203

>  <JCHEM_POLAR_SURFACE_AREA>
70.5

>  <JCHEM_REFRACTIVITY>
62.824501

>  <JCHEM_ROTATABLE_BOND_COUNT>
2

>  <JCHEM_RULE_OF_FIVE>
1

>  <ALOGPS_SOLUBILITY>
2.30e+00 g/l

>  <JCHEM_TRADITIONAL_IUPAC>
nalidixic acid

>  <JCHEM_VEBER_RULE>
0

>  <DRUGBANK_ID>
DB00779

>  <DRUG_GROUPS>
approved

>  <GENERIC_NAME>
Nalidixic Acid

>  <SYNONYMS>
Acide nalidixique; Acido nalidixico; Acidum Nalidixicum; Nalidixinsäure

>  <BRANDS>
Adix; Curiemylon; Degram; Delugi; Dixicon; Glanega; Gramazine; Gramoneg; Huei Yi; Lisalenb; Litalon; Nadixin; Nadon; Nagomin; Nal-acid; Nalic; Nalicid; Nalid; Nalidin; Nalidix; Naligram; Nalitomylon; Nalix; Nalixid; Nalixin; Nebactil; Negachine; NegGram; Nevigramon; Unaserus; Wintomylon; Wintorin; Youdix; Zuno-Nathasid

$$$$
Phenelzine
 OpenBabel02121510022D

 10 10  0  0  0  0  0  0  0  0999 V2000
    3.0790    1.3940    0.0000 N   0  0  0  0  0  0  0  0  0  0  0  0
    3.7930    1.8070    0.0000 N   0  0  0  0  0  0  0  0  0  0  0  0
    2.3640    0.1570    0.0000 C   0  0  0  0  0  0  0  0  0  0  0  0
    2.3640   -0.6680    0.0000 C   0  0  0  0  0  0  0  0  0  0  0  0
    3.0790    0.5690    0.0000 C   0  0  0  0  0  0  0  0  0  0  0  0
    3.0790   -1.0810    0.0000 C   0  0  0  0  0  0  0  0  0  0  0  0
    1.6500   -1.0810    0.0000 C   0  0  0  0  0  0  0  0  0  0  0  0
    3.0790   -1.9060    0.0000 C   0  0  0  0  0  0  0  0  0  0  0  0
    1.6500   -1.9060    0.0000 C   0  0  0  0  0  0  0  0  0  0  0  0
    2.3640   -2.3180    0.0000 C   0  0  0  0  0  0  0  0  0  0  0  0
  1  2  1  0  0  0  0
  1  5  1  0  0  0  0
  3  4  1  0  0  0  0
  3  5  1  0  0  0  0
  4  6  2  0  0  0  0
  4  7  1  0  0  0  0
  6  8  1  0  0  0  0
  7  9  2  0  0  0  0
  8 10  2  0  0  0  0
  9 10  1  0  0  0  0
M  END
>  <DATABASE_ID>
DB00780

>  <DATABASE_NAME>
drugbank

>  <SMILES>
N(N)CCc1ccccc1

>  <INCHI_IDENTIFIER>
InChI=1S/C8H12N2/c9-10-7-6-8-4-2-1-3-5-8/h1-5,10H,6-7,9H2

>  <INCHI_KEY>
InChIKey=RMUCZJUITONUFY-UHFFFAOYSA-N

>  <JCHEM_ACCEPTOR_COUNT>
2

>  <JCHEM_AVERAGE_POLARIZABILITY>
15.804918

>  <JCHEM_BIOAVAILABILITY>
1

>  <JCHEM_DONOR_COUNT>
2

>  <JCHEM_EXACT_MASS>
136.10005

>  <JCHEM_FORMAL_CHARGE>
0

>  <JCHEM_FORMULA>
C8H12N2

>  <JCHEM_GHOSE_FILTER>
0

>  <JCHEM_IUPAC>
(2-phenylethyl)hydrazine

>  <ALOGPS_LOGP>
1.2

>  <JCHEM_LOGP>
1.2030201

>  <ALOGPS_LOGS>
-1.09

>  <JCHEM_MASS>
136.19431

>  <JCHEM_MDDR_LIKE_RULE>
0

>  <JCHEM_NUMBER_OF_RINGS>
1

>  <JCHEM_PHYSIOLOGICAL_CHARGE>
0

>  <JCHEM_PKA_STRONGEST_BASIC>
5.5522647

>  <JCHEM_POLAR_SURFACE_AREA>
38.049999

>  <JCHEM_REFRACTIVITY>
54.263302

>  <JCHEM_ROTATABLE_BOND_COUNT>
3

>  <JCHEM_RULE_OF_FIVE>
1

>  <ALOGPS_SOLUBILITY>
1.11e+01 g/l

>  <JCHEM_TRADITIONAL_IUPAC>
phenelzine

>  <JCHEM_VEBER_RULE>
1

>  <DRUGBANK_ID>
DB00780

>  <DRUG_GROUPS>
approved

>  <GENERIC_NAME>
Phenelzine

>  <SYNONYMS>
Alazine; Fenelzina; Monofen; Phenelzin; Phénelzine; Phenelzinum; β-Phenylethylhydrazine

>  <BRANDS>
Margyl; Nardelzine; Nardil; Phenelzine Sulfate

>  <SALTS>
Phenelzine Sulfate; Phenelzine Sulphate

$$$$
Propantheline
 OpenBabel02121510022D

 27 29  0  0  0  0  0  0  0  0999 V2000
    4.5640   -0.1920    0.0000 O   0  0  0  0  0  0  0  0  0  0  0  0
    3.8500   -3.0800    0.0000 O   0  0  0  0  0  0  0  0  0  0  0  0
    3.1350   -0.1920    0.0000 O   0  0  0  0  0  0  0  0  0  0  0  0
    5.2780    1.8700    0.0000 N   0  3  0  0  0  0  0  0  0  0  0  0
    6.1030    1.8700    0.0000 C   0  0  0  0  0  0  0  0  0  0  0  0
    5.2780    2.6960    0.0000 C   0  0  0  0  0  0  0  0  0  0  0  0
    5.2780    1.0460    0.0000 C   0  0  0  0  0  0  0  0  0  0  0  0
    4.4530    1.8700    0.0000 C   0  0  0  0  0  0  0  0  0  0  0  0
    6.5160    1.1560    0.0000 C   0  0  0  0  0  0  0  0  0  0  0  0
    6.5160    2.5850    0.0000 C   0  0  0  0  0  0  0  0  0  0  0  0
    5.9930    3.1080    0.0000 C   0  0  0  0  0  0  0  0  0  0  0  0
    4.5640    3.1080    0.0000 C   0  0  0  0  0  0  0  0  0  0  0  0
    4.5640    0.6330    0.0000 C   0  0  0  0  0  0  0  0  0  0  0  0
    3.8500   -1.4300    0.0000 C   0  0  0  0  0  0  0  0  0  0  0  0
    3.8500   -0.6040    0.0000 C   0  0  0  0  0  0  0  0  0  0  0  0
    4.5640   -1.8420    0.0000 C   0  0  0  0  0  0  0  0  0  0  0  0
    3.1350   -1.8420    0.0000 C   0  0  0  0  0  0  0  0  0  0  0  0
    4.5640   -2.6670    0.0000 C   0  0  0  0  0  0  0  0  0  0  0  0
    3.1350   -2.6670    0.0000 C   0  0  0  0  0  0  0  0  0  0  0  0
    5.3020   -1.4010    0.0000 C   0  0  0  0  0  0  0  0  0  0  0  0
    2.3980   -1.4010    0.0000 C   0  0  0  0  0  0  0  0  0  0  0  0
    5.3020   -3.1080    0.0000 C   0  0  0  0  0  0  0  0  0  0  0  0
    2.3980   -3.1080    0.0000 C   0  0  0  0  0  0  0  0  0  0  0  0
    6.0490   -1.8250    0.0000 C   0  0  0  0  0  0  0  0  0  0  0  0
    1.6500   -1.8250    0.0000 C   0  0  0  0  0  0  0  0  0  0  0  0
    6.0490   -2.6840    0.0000 C   0  0  0  0  0  0  0  0  0  0  0  0
    1.6500   -2.6840    0.0000 C   0  0  0  0  0  0  0  0  0  0  0  0
  1 13  1  0  0  0  0
  1 15  1  0  0  0  0
  2 18  1  0  0  0  0
  2 19  1  0  0  0  0
  3 15  2  0  0  0  0
  4  5  1  0  0  0  0
  4  6  1  0  0  0  0
  4  7  1  0  0  0  0
  4  8  1  0  0  0  0
  5  9  1  0  0  0  0
  5 10  1  0  0  0  0
  6 11  1  0  0  0  0
  6 12  1  0  0  0  0
  7 13  1  0  0  0  0
 14 15  1  0  0  0  0
 14 16  1  0  0  0  0
 14 17  1  0  0  0  0
 16 18  2  0  0  0  0
 16 20  1  0  0  0  0
 17 19  2  0  0  0  0
 17 21  1  0  0  0  0
 18 22  1  0  0  0  0
 19 23  1  0  0  0  0
 20 24  2  0  0  0  0
 21 25  2  0  0  0  0
 22 26  2  0  0  0  0
 23 27  2  0  0  0  0
 24 26  1  0  0  0  0
 25 27  1  0  0  0  0
M  CHG  1   4   1
M  END
>  <DATABASE_ID>
DB00782

>  <DATABASE_NAME>
drugbank

>  <SMILES>
O1c2c(cccc2)C(c2c1cccc2)C(OCC[N+](C(C)C)(C(C)C)C)=O

>  <INCHI_IDENTIFIER>
InChI=1S/C23H30NO3/c1-16(2)24(5,17(3)4)14-15-26-23(25)22-18-10-6-8-12-20(18)27-21-13-9-7-11-19(21)22/h6-13,16-17,22H,14-15H2,1-5H3/q+1

>  <INCHI_KEY>
InChIKey=VVWYOYDLCMFIEM-UHFFFAOYSA-N

>  <JCHEM_ACCEPTOR_COUNT>
1

>  <JCHEM_AVERAGE_POLARIZABILITY>
40.867035

>  <JCHEM_BIOAVAILABILITY>
1

>  <JCHEM_DONOR_COUNT>
0

>  <JCHEM_EXACT_MASS>
368.22256

>  <JCHEM_FORMAL_CHARGE>
1

>  <JCHEM_FORMULA>
C23H30NO3

>  <JCHEM_GHOSE_FILTER>
1

>  <JCHEM_IUPAC>
methylbis(propan-2-yl){2-[(9H-xanthen-9-yl)carbonyloxy]ethyl}azanium

>  <ALOGPS_LOGP>
2.6600001

>  <JCHEM_LOGP>
0.36379364

>  <ALOGPS_LOGS>
-6.75

>  <JCHEM_MASS>
368.4892

>  <JCHEM_MDDR_LIKE_RULE>
1

>  <JCHEM_NUMBER_OF_RINGS>
3

>  <JCHEM_PHYSIOLOGICAL_CHARGE>
1

>  <JCHEM_PKA_STRONGEST_ACIDIC>
18.098024

>  <JCHEM_PKA_STRONGEST_BASIC>
-7.1859779

>  <JCHEM_POLAR_SURFACE_AREA>
35.529999

>  <JCHEM_REFRACTIVITY>
119.2545

>  <JCHEM_ROTATABLE_BOND_COUNT>
7

>  <JCHEM_RULE_OF_FIVE>
1

>  <ALOGPS_SOLUBILITY>
7.22e-05 g/l

>  <JCHEM_TRADITIONAL_IUPAC>
propantheline

>  <JCHEM_VEBER_RULE>
1

>  <DRUGBANK_ID>
DB00782

>  <DRUG_GROUPS>
approved

>  <GENERIC_NAME>
Propantheline

>  <SYNONYMS>
Propantelina bromuro; Propantelina, bromuro de; Propanthelin bromid; Propanthéline, bromure de; Propanthelini Bromidum

>  <BRANDS>
Ercoril; Methaphyllin; Pro Banthine; Prokind; Propanline; Propantheline; Spastheline

>  <SALTS>
Propantheline Bromide

$$$$
Estradiol
 OpenBabel02121510022D

 23 26  0  0  1  0  0  0  0  0999 V2000
    7.5780    1.7430    0.0000 O   0  0  0  0  0  0  0  0  0  0  0  0
    2.0920   -1.8100    0.0000 O   0  0  0  0  0  0  0  0  0  0  0  0
    6.5410    0.7070    0.0000 C   0  0  1  0  0  0  0  0  0  0  0  0
    6.5410   -0.1180    0.0000 C   0  0  2  0  0  0  0  0  0  0  0  0
    5.8260   -0.5300    0.0000 C   0  0  1  0  0  0  0  0  0  0  0  0
    5.1120   -0.1180    0.0000 C   0  0  2  0  0  0  0  0  0  0  0  0
    7.3210    0.9590    0.0000 C   0  0  2  0  0  0  0  0  0  0  0  0
    5.8260    1.1200    0.0000 C   0  0  0  0  0  0  0  0  0  0  0  0
    7.3210   -0.3690    0.0000 C   0  0  0  0  0  0  0  0  0  0  0  0
    5.1120    0.7070    0.0000 C   0  0  0  0  0  0  0  0  0  0  0  0
    7.8030    0.2950    0.0000 C   0  0  0  0  0  0  0  0  0  0  0  0
    5.8400   -1.3890    0.0000 C   0  0  0  0  0  0  0  0  0  0  0  0
    6.5410    1.5320    0.0000 C   0  0  0  0  0  0  0  0  0  0  0  0
    4.3610   -0.5360    0.0000 C   0  0  0  0  0  0  0  0  0  0  0  0
    5.0990   -1.8240    0.0000 C   0  0  0  0  0  0  0  0  0  0  0  0
    4.3540   -1.3950    0.0000 C   0  0  0  0  0  0  0  0  0  0  0  0
    3.5970   -0.0700    0.0000 C   0  0  0  0  0  0  0  0  0  0  0  0
    3.5830   -1.8480    0.0000 C   0  0  0  0  0  0  0  0  0  0  0  0
    2.8150   -0.5060    0.0000 C   0  0  0  0  0  0  0  0  0  0  0  0
    2.8080   -1.4010    0.0000 C   0  0  0  0  0  0  0  0  0  0  0  0
    6.6100   -0.7740    0.0000 H   0  0  0  0  0  0  0  0  0  0  0  0
    6.4000   -0.8560    0.0000 H   0  0  0  0  0  0  0  0  0  0  0  0
    5.6830    0.2120    0.0000 H   0  0  0  0  0  0  0  0  0  0  0  0
  2 20  1  0  0  0  0
  3  4  1  0  0  0  0
  3  7  1  0  0  0  0
  3  8  1  0  0  0  0
  3 13  1  1  0  0  0
  4  5  1  0  0  0  0
  4  9  1  0  0  0  0
  4 21  1  6  0  0  0
  5  6  1  0  0  0  0
  5 12  1  0  0  0  0
  5 22  1  1  0  0  0
  6 10  1  0  0  0  0
  6 14  1  0  0  0  0
  6 23  1  6  0  0  0
  7  1  1  1  0  0  0
  7 11  1  0  0  0  0
  8 10  1  0  0  0  0
  9 11  1  0  0  0  0
 12 15  1  0  0  0  0
 14 16  2  0  0  0  0
 14 17  1  0  0  0  0
 15 16  1  0  0  0  0
 16 18  1  0  0  0  0
 17 19  2  0  0  0  0
 18 20  2  0  0  0  0
 19 20  1  0  0  0  0
M  END
>  <DATABASE_ID>
DB00783

>  <DATABASE_NAME>
drugbank

>  <SMILES>
Oc1cc2CC[C@H]3[C@@H]4CC[C@H](O)[C@]4(CC[C@@H]3c2cc1)C

>  <INCHI_IDENTIFIER>
InChI=1S/C18H24O2/c1-18-9-8-14-13-5-3-12(19)10-11(13)2-4-15(14)16(18)6-7-17(18)20/h3,5,10,14-17,19-20H,2,4,6-9H2,1H3/t14-,15-,16+,17+,18+/m1/s1

>  <INCHI_KEY>
InChIKey=VOXZDWNPVJITMN-ZBRFXRBCSA-N

>  <JCHEM_ACCEPTOR_COUNT>
2

>  <JCHEM_AVERAGE_POLARIZABILITY>
32.130211

>  <JCHEM_BIOAVAILABILITY>
1

>  <JCHEM_DONOR_COUNT>
2

>  <JCHEM_EXACT_MASS>
272.17764

>  <JCHEM_FORMAL_CHARGE>
0

>  <JCHEM_FORMULA>
C18H24O2

>  <JCHEM_GHOSE_FILTER>
1

>  <JCHEM_IUPAC>
(1S,10R,11S,14S,15S)-15-methyltetracyclo[8.7.0.0^{2,7}.0^{11,15}]heptadeca-2(7),3,5-triene-5,14-diol

>  <ALOGPS_LOGP>
3.5699999

>  <JCHEM_LOGP>
3.7455013

>  <ALOGPS_LOGS>
-4.1100001

>  <JCHEM_MASS>
272.38199

>  <JCHEM_MDDR_LIKE_RULE>
0

>  <JCHEM_NUMBER_OF_RINGS>
4

>  <JCHEM_PHYSIOLOGICAL_CHARGE>
0

>  <JCHEM_PKA>
19.377693

>  <JCHEM_PKA_STRONGEST_ACIDIC>
10.327061

>  <JCHEM_PKA_STRONGEST_BASIC>
-0.88399744

>  <JCHEM_POLAR_SURFACE_AREA>
40.459999

>  <JCHEM_REFRACTIVITY>
79.904701

>  <JCHEM_ROTATABLE_BOND_COUNT>
0

>  <JCHEM_RULE_OF_FIVE>
1

>  <ALOGPS_SOLUBILITY>
2.13e-02 g/l

>  <JCHEM_TRADITIONAL_IUPAC>
estradiol

>  <JCHEM_VEBER_RULE>
0

>  <DRUGBANK_ID>
DB00783

>  <DRUG_GROUPS>
approved; investigational

>  <GENERIC_NAME>
Estradiol

>  <SYNONYMS>
Benzhormovarine; Dihydrofollicular hormone; Dihydrofolliculin; Dihydrotheelin; Dihydroxyestrin; Estradiol; Estradiol; Estradiol; Estradiolum; Femestral; Lio-Oid

>  <BRANDS>
Alora; Climara; Depo-Estradiol; Divigel; Elestrin; Estrace; Estraderm MX; Estraderm TTS; Estrasorb; Estring; Estrofem; Estrogel; EvaMist; Femring; Femtrace; Innofem; Menostar; Minivelle; Vagifem; Vivelle; Vivelle-Dot

>  <SALTS>
Estradiol acetate; Estradiol benzoate; Estradiol cypionate; Estradiol valerate

$$$$
Mefenamic acid
 OpenBabel02121510022D

 18 19  0  0  0  0  0  0  0  0999 V2000
    3.0790    2.3470    0.0000 O   0  0  0  0  0  0  0  0  0  0  0  0
    2.3640    1.1100    0.0000 O   0  0  0  0  0  0  0  0  0  0  0  0
    3.0790   -0.1280    0.0000 N   0  0  0  0  0  0  0  0  0  0  0  0
    2.3640   -1.3650    0.0000 C   0  0  0  0  0  0  0  0  0  0  0  0
    3.0790   -0.9530    0.0000 C   0  0  0  0  0  0  0  0  0  0  0  0
    2.3640   -2.1900    0.0000 C   0  0  0  0  0  0  0  0  0  0  0  0
    3.7940    0.2850    0.0000 C   0  0  0  0  0  0  0  0  0  0  0  0
    3.7940   -1.3650    0.0000 C   0  0  0  0  0  0  0  0  0  0  0  0
    3.0790   -2.6030    0.0000 C   0  0  0  0  0  0  0  0  0  0  0  0
    1.6500   -0.9530    0.0000 C   0  0  0  0  0  0  0  0  0  0  0  0
    3.7940   -2.1900    0.0000 C   0  0  0  0  0  0  0  0  0  0  0  0
    3.7940    1.1100    0.0000 C   0  0  0  0  0  0  0  0  0  0  0  0
    1.6500   -2.6030    0.0000 C   0  0  0  0  0  0  0  0  0  0  0  0
    4.5080   -0.1280    0.0000 C   0  0  0  0  0  0  0  0  0  0  0  0
    4.5080    1.5220    0.0000 C   0  0  0  0  0  0  0  0  0  0  0  0
    5.2220    0.2850    0.0000 C   0  0  0  0  0  0  0  0  0  0  0  0
    5.2220    1.1100    0.0000 C   0  0  0  0  0  0  0  0  0  0  0  0
    3.0790    1.5220    0.0000 C   0  0  0  0  0  0  0  0  0  0  0  0
  1 18  1  0  0  0  0
  2 18  2  0  0  0  0
  3  5  1  0  0  0  0
  3  7  1  0  0  0  0
  4  5  2  0  0  0  0
  4  6  1  0  0  0  0
  4 10  1  0  0  0  0
  5  8  1  0  0  0  0
  6  9  2  0  0  0  0
  6 13  1  0  0  0  0
  7 12  2  0  0  0  0
  7 14  1  0  0  0  0
  8 11  2  0  0  0  0
  9 11  1  0  0  0  0
 12 15  1  0  0  0  0
 12 18  1  0  0  0  0
 14 16  2  0  0  0  0
 15 17  2  0  0  0  0
 16 17  1  0  0  0  0
M  END
>  <DATABASE_ID>
DB00784

>  <DATABASE_NAME>
drugbank

>  <SMILES>
OC(=O)c1ccccc1Nc1cccc(C)c1C

>  <INCHI_IDENTIFIER>
InChI=1S/C15H15NO2/c1-10-6-5-9-13(11(10)2)16-14-8-4-3-7-12(14)15(17)18/h3-9,16H,1-2H3,(H,17,18)

>  <INCHI_KEY>
InChIKey=HYYBABOKPJLUIN-UHFFFAOYSA-N

>  <JCHEM_ACCEPTOR_COUNT>
3

>  <JCHEM_AVERAGE_POLARIZABILITY>
26.222893

>  <JCHEM_BIOAVAILABILITY>
1

>  <JCHEM_DONOR_COUNT>
2

>  <JCHEM_EXACT_MASS>
241.11028

>  <JCHEM_FORMAL_CHARGE>
0

>  <JCHEM_FORMULA>
C15H15NO2

>  <JCHEM_GHOSE_FILTER>
1

>  <JCHEM_IUPAC>
2-[(2,3-dimethylphenyl)amino]benzoic acid

>  <ALOGPS_LOGP>
4.5799999

>  <JCHEM_LOGP>
5.3975973

>  <ALOGPS_LOGS>
-4.25

>  <JCHEM_MASS>
241.2851

>  <JCHEM_MDDR_LIKE_RULE>
0

>  <JCHEM_NUMBER_OF_RINGS>
2

>  <JCHEM_PHYSIOLOGICAL_CHARGE>
-1

>  <JCHEM_PKA>
17.769903

>  <JCHEM_PKA_STRONGEST_ACIDIC>
3.8858509

>  <JCHEM_PKA_STRONGEST_BASIC>
-1.578908

>  <JCHEM_POLAR_SURFACE_AREA>
49.330002

>  <JCHEM_REFRACTIVITY>
71.882797

>  <JCHEM_ROTATABLE_BOND_COUNT>
3

>  <JCHEM_RULE_OF_FIVE>
0

>  <ALOGPS_SOLUBILITY>
1.37e-02 g/l

>  <JCHEM_TRADITIONAL_IUPAC>
mefenamic acid

>  <JCHEM_VEBER_RULE>
0

>  <DRUGBANK_ID>
DB00784

>  <DRUG_GROUPS>
approved

>  <GENERIC_NAME>
Mefenamic acid

>  <SYNONYMS>
Acide méfénamique; Acido mefenamico; Acidum mefenamicum; Mefenaminsäure

>  <BRANDS>
Coslan; Lysalgo; Mefacit; Parkemed; Ponalar; Ponstan; Ponstan Forte; Ponstel; Ponstyl; Ponstyl Fort; Pontal; Tanston

$$$$
Aciclovir
 OpenBabel02121510022D

 16 17  0  0  0  0  0  0  0  0999 V2000
    6.0810    0.7120    0.0000 O   0  0  0  0  0  0  0  0  0  0  0  0
    3.5220   -2.5560    0.0000 O   0  0  0  0  0  0  0  0  0  0  0  0
    7.4010    2.4510    0.0000 O   0  0  0  0  0  0  0  0  0  0  0  0
    5.0170   -0.2420    0.0000 N   0  0  0  0  0  0  0  0  0  0  0  0
    3.5220   -0.0810    0.0000 N   0  0  0  0  0  0  0  0  0  0  0  0
    5.0170   -1.5700    0.0000 N   0  0  0  0  0  0  0  0  0  0  0  0
    2.8080   -1.3190    0.0000 N   0  0  0  0  0  0  0  0  0  0  0  0
    2.0930   -0.0810    0.0000 N   0  0  0  0  0  0  0  0  0  0  0  0
    4.2360   -0.4940    0.0000 C   0  0  0  0  0  0  0  0  0  0  0  0
    5.2730    0.5420    0.0000 C   0  0  0  0  0  0  0  0  0  0  0  0
    4.2360   -1.3190    0.0000 C   0  0  0  0  0  0  0  0  0  0  0  0
    5.4990   -0.9060    0.0000 C   0  0  0  0  0  0  0  0  0  0  0  0
    3.5220   -1.7310    0.0000 C   0  0  0  0  0  0  0  0  0  0  0  0
    2.8080   -0.4940    0.0000 C   0  0  0  0  0  0  0  0  0  0  0  0
    6.3370    1.4960    0.0000 C   0  0  0  0  0  0  0  0  0  0  0  0
    7.1440    1.6660    0.0000 C   0  0  0  0  0  0  0  0  0  0  0  0
  1 10  1  0  0  0  0
  1 15  1  0  0  0  0
  2 13  2  0  0  0  0
  3 16  1  0  0  0  0
  4  9  1  0  0  0  0
  4 10  1  0  0  0  0
  4 12  1  0  0  0  0
  5  9  1  0  0  0  0
  5 14  1  0  0  0  0
  6 11  1  0  0  0  0
  6 12  2  0  0  0  0
  7 13  1  0  0  0  0
  7 14  2  0  0  0  0
  8 14  1  0  0  0  0
  9 11  2  0  0  0  0
 11 13  1  0  0  0  0
 15 16  1  0  0  0  0
M  END
>  <DATABASE_ID>
DB00787

>  <DATABASE_NAME>
drugbank

>  <SMILES>
O=C1N=C(Nc2n(cnc12)COCCO)N

>  <INCHI_IDENTIFIER>
InChI=1S/C8H11N5O3/c9-8-11-6-5(7(15)12-8)10-3-13(6)4-16-2-1-14/h3,14H,1-2,4H2,(H3,9,11,12,15)

>  <INCHI_KEY>
InChIKey=MKUXAQIIEYXACX-UHFFFAOYSA-N

>  <JCHEM_ACCEPTOR_COUNT>
7

>  <JCHEM_AVERAGE_POLARIZABILITY>
21.507935

>  <JCHEM_BIOAVAILABILITY>
1

>  <JCHEM_DONOR_COUNT>
3

>  <JCHEM_EXACT_MASS>
225.08618

>  <JCHEM_FORMAL_CHARGE>
0

>  <JCHEM_FORMULA>
C8H11N5O3

>  <JCHEM_GHOSE_FILTER>
0

>  <JCHEM_IUPAC>
2-amino-9-[(2-hydroxyethoxy)methyl]-6,9-dihydro-3H-purin-6-one

>  <ALOGPS_LOGP>
-0.94999999

>  <JCHEM_LOGP>
-1.0319568

>  <ALOGPS_LOGS>
-1.39

>  <JCHEM_MASS>
225.20461

>  <JCHEM_MDDR_LIKE_RULE>
0

>  <JCHEM_NUMBER_OF_RINGS>
2

>  <JCHEM_PHYSIOLOGICAL_CHARGE>
0

>  <JCHEM_PKA>
15.117259

>  <JCHEM_PKA_STRONGEST_ACIDIC>
7.986608

>  <JCHEM_PKA_STRONGEST_BASIC>
2.6261778

>  <JCHEM_POLAR_SURFACE_AREA>
114.76

>  <JCHEM_REFRACTIVITY>
54.6334

>  <JCHEM_ROTATABLE_BOND_COUNT>
4

>  <JCHEM_RULE_OF_FIVE>
1

>  <ALOGPS_SOLUBILITY>
9.08e+00 g/l

>  <JCHEM_TRADITIONAL_IUPAC>
aciclovir

>  <JCHEM_VEBER_RULE>
0

>  <DRUGBANK_ID>
DB00787

>  <DRUG_GROUPS>
approved

>  <GENERIC_NAME>
Aciclovir

>  <SYNONYMS>
Acycloguanosine; Acyclovir

>  <BRANDS>
Sitavig; Zovir; Zovirax

>  <SALTS>
Aciclovir Sodium

$$$$
Naproxen
 OpenBabel02121510022D

 17 18  0  0  1  0  0  0  0  0999 V2000
   -1.6800    1.0310    0.0000 C   0  0  0  0  0  0  0  0  0  0  0  0
   -2.3940    0.6190    0.0000 C   0  0  0  0  0  0  0  0  0  0  0  0
   -2.3940   -0.2060    0.0000 C   0  0  0  0  0  0  0  0  0  0  0  0
   -1.6800   -0.6190    0.0000 C   0  0  0  0  0  0  0  0  0  0  0  0
   -0.9650   -0.2060    0.0000 C   0  0  0  0  0  0  0  0  0  0  0  0
   -0.9650    0.6190    0.0000 C   0  0  0  0  0  0  0  0  0  0  0  0
   -0.2500    1.0310    0.0000 C   0  0  0  0  0  0  0  0  0  0  0  0
   -0.2500   -0.6190    0.0000 C   0  0  0  0  0  0  0  0  0  0  0  0
    0.4640   -0.2060    0.0000 C   0  0  0  0  0  0  0  0  0  0  0  0
    0.4640    0.6190    0.0000 C   0  0  0  0  0  0  0  0  0  0  0  0
    1.1780    1.0310    0.0000 C   0  0  1  0  0  0  0  0  0  0  0  0
    1.8930    0.6190    0.0000 C   0  0  0  0  0  0  0  0  0  0  0  0
    1.8930   -0.2060    0.0000 O   0  0  0  0  0  0  0  0  0  0  0  0
    2.6070    1.0310    0.0000 O   0  0  0  0  0  0  0  0  0  0  0  0
    1.1780    1.8560    0.0000 C   0  0  0  0  0  0  0  0  0  0  0  0
   -3.1080   -0.6190    0.0000 O   0  0  0  0  0  0  0  0  0  0  0  0
   -3.1080   -1.4440    0.0000 C   0  0  0  0  0  0  0  0  0  0  0  0
  1  2  1  0  0  0  0
  1  6  2  0  0  0  0
  2  3  2  0  0  0  0
  3  4  1  0  0  0  0
  3 16  1  0  0  0  0
  4  5  2  0  0  0  0
  5  6  1  0  0  0  0
  5  8  1  0  0  0  0
  6  7  1  0  0  0  0
  7 10  2  0  0  0  0
  8  9  2  0  0  0  0
  9 10  1  0  0  0  0
 11 10  1  6  0  0  0
 11 12  1  0  0  0  0
 11 15  1  0  0  0  0
 12 13  2  0  0  0  0
 12 14  1  0  0  0  0
 16 17  1  0  0  0  0
M  END
>  <DATABASE_ID>
DB00788

>  <DATABASE_NAME>
drugbank

>  <SMILES>
O(C)c1cc2c(cc(cc2)[C@@H](C(O)=O)C)cc1

>  <INCHI_IDENTIFIER>
InChI=1S/C14H14O3/c1-9(14(15)16)10-3-4-12-8-13(17-2)6-5-11(12)7-10/h3-9H,1-2H3,(H,15,16)/t9-/m0/s1

>  <INCHI_KEY>
InChIKey=CMWTZPSULFXXJA-VIFPVBQESA-N

>  <JCHEM_ACCEPTOR_COUNT>
3

>  <JCHEM_AVERAGE_POLARIZABILITY>
24.81179

>  <JCHEM_BIOAVAILABILITY>
1

>  <JCHEM_DONOR_COUNT>
1

>  <JCHEM_EXACT_MASS>
230.0943

>  <JCHEM_FORMAL_CHARGE>
0

>  <JCHEM_FORMULA>
C14H14O3

>  <JCHEM_GHOSE_FILTER>
1

>  <JCHEM_IUPAC>
(2S)-2-(6-methoxynaphthalen-2-yl)propanoic acid

>  <ALOGPS_LOGP>
3.29

>  <JCHEM_LOGP>
2.985786

>  <ALOGPS_LOGS>
-3.6500001

>  <JCHEM_MASS>
230.2592

>  <JCHEM_MDDR_LIKE_RULE>
0

>  <JCHEM_NUMBER_OF_RINGS>
2

>  <JCHEM_PHYSIOLOGICAL_CHARGE>
-1

>  <JCHEM_PKA_STRONGEST_ACIDIC>
4.1903534

>  <JCHEM_PKA_STRONGEST_BASIC>
-4.8284116

>  <JCHEM_POLAR_SURFACE_AREA>
46.529999

>  <JCHEM_REFRACTIVITY>
64.8535

>  <JCHEM_ROTATABLE_BOND_COUNT>
3

>  <JCHEM_RULE_OF_FIVE>
1

>  <ALOGPS_SOLUBILITY>
5.11e-02 g/l

>  <JCHEM_TRADITIONAL_IUPAC>
naproxen

>  <JCHEM_VEBER_RULE>
0

>  <DRUGBANK_ID>
DB00788

>  <DRUG_GROUPS>
approved

>  <GENERIC_NAME>
Naproxen

>  <SYNONYMS>
Naprolag; Naproxen; Naproxène; Naproxeno; Naproxenum

>  <BRANDS>
Aleve; Alidase; Alpoxen; Alpron; Anaprox; Apain; Apranax; Apronax; Bonyl; Bruproxen; Bumaflex N; Congex; Debril; Deproxen; Dysmenalgit; Ec-naprosyn; Emox; Emoxen; Eurogesic; Fabralgina; Feminax Ultra; Flogotone; Gerinap; Honlow; Improstan; Inflamax; Inza; Iraxen; Jinkangpuli; Lexinax; Melgar; Messelxen; Mobilat; NAPRELAN; Naprometin; Naprosyn; Naprosyn CR; Naprosyn EC; Naprosyn Entero; Naprosyn SR; Naprosyne; Naproval; Naproxen; Naprux; Neuralprona; Noflam; Nopain; Prexan; Priaxen; Princeps; Pronaxen; Proxen; Proxen S; Proxen SR; Releve; Repro; Reuxen; Riproxen; Sanaprox; Seladin; Servinaprox; Tarproxen; Ticoflex; Tundra; Xenar; Xenar-CR

>  <SALTS>
Naproxen sodium

$$$$
Perindopril
 OpenBabel02121510022D

 28 29  0  0  1  0  0  0  0  0999 V2000
    5.4690   -1.0980    0.0000 O   0  0  0  0  0  0  0  0  0  0  0  0
    6.1240   -3.4300    0.0000 O   0  0  0  0  0  0  0  0  0  0  0  0
    6.1240   -2.0020    0.0000 O   0  0  0  0  0  0  0  0  0  0  0  0
    3.5210    2.1430    0.0000 O   0  0  0  0  0  0  0  0  0  0  0  0
    4.8790    1.6990    0.0000 O   0  0  0  0  0  0  0  0  0  0  0  0
    4.4050   -2.0520    0.0000 N   0  0  0  0  0  0  0  0  0  0  0  0
    4.3670    0.1300    0.0000 N   0  0  0  0  0  0  0  0  0  0  0  0
    3.6240   -3.1280    0.0000 C   0  0  2  0  0  0  0  0  0  0  0  0
    3.6240   -2.3040    0.0000 C   0  0  2  0  0  0  0  0  0  0  0  0
    4.4050   -3.3800    0.0000 C   0  0  0  0  0  0  0  0  0  0  0  0
    4.8860   -2.7160    0.0000 C   0  0  1  0  0  0  0  0  0  0  0  0
    2.9100   -3.5410    0.0000 C   0  0  0  0  0  0  0  0  0  0  0  0
    2.9100   -1.8910    0.0000 C   0  0  0  0  0  0  0  0  0  0  0  0
    2.1950   -3.1280    0.0000 C   0  0  0  0  0  0  0  0  0  0  0  0
    2.1950   -2.3040    0.0000 C   0  0  0  0  0  0  0  0  0  0  0  0
    4.6610   -1.2680    0.0000 C   0  0  0  0  0  0  0  0  0  0  0  0
    5.7120   -2.7160    0.0000 C   0  0  0  0  0  0  0  0  0  0  0  0
    4.1100   -0.6540    0.0000 C   0  0  2  0  0  0  0  0  0  0  0  0
    3.3030   -0.8240    0.0000 C   0  0  0  0  0  0  0  0  0  0  0  0
    3.8160    0.7440    0.0000 C   0  0  1  0  0  0  0  0  0  0  0  0
    3.0080    0.5740    0.0000 C   0  0  0  0  0  0  0  0  0  0  0  0
    4.0720    1.5290    0.0000 C   0  0  0  0  0  0  0  0  0  0  0  0
    2.4570    1.1880    0.0000 C   0  0  0  0  0  0  0  0  0  0  0  0
    1.6500    1.0180    0.0000 C   0  0  0  0  0  0  0  0  0  0  0  0
    3.7770    2.9270    0.0000 C   0  0  0  0  0  0  0  0  0  0  0  0
    3.2260    3.5410    0.0000 C   0  0  0  0  0  0  0  0  0  0  0  0
    3.6940   -3.7850    0.0000 H   0  0  0  0  0  0  0  0  0  0  0  0
    3.6940   -1.6470    0.0000 H   0  0  0  0  0  0  0  0  0  0  0  0
  1 16  2  0  0  0  0
  2 17  1  0  0  0  0
  3 17  2  0  0  0  0
  4 22  1  0  0  0  0
  4 25  1  0  0  0  0
  5 22  2  0  0  0  0
  6  9  1  0  0  0  0
  6 11  1  0  0  0  0
  6 16  1  0  0  0  0
  8  9  1  0  0  0  0
  8 10  1  0  0  0  0
  8 12  1  0  0  0  0
  8 27  1  1  0  0  0
  9 13  1  0  0  0  0
  9 28  1  1  0  0  0
 10 11  1  0  0  0  0
 11 17  1  6  0  0  0
 12 14  1  0  0  0  0
 13 15  1  0  0  0  0
 14 15  1  0  0  0  0
 16 18  1  0  0  0  0
 18  7  1  6  0  0  0
 18 19  1  0  0  0  0
 20  7  1  1  0  0  0
 20 21  1  0  0  0  0
 20 22  1  0  0  0  0
 21 23  1  0  0  0  0
 23 24  1  0  0  0  0
 25 26  1  0  0  0  0
M  END
>  <DATABASE_ID>
DB00790

>  <DATABASE_NAME>
drugbank

>  <SMILES>
O(CC)C(=O)[C@@H](N[C@H](C(=O)N1[C@@H]2[C@H](C[C@H]1C(O)=O)CCCC2)C)CCC

>  <INCHI_IDENTIFIER>
InChI=1S/C19H32N2O5/c1-4-8-14(19(25)26-5-2)20-12(3)17(22)21-15-10-7-6-9-13(15)11-16(21)18(23)24/h12-16,20H,4-11H2,1-3H3,(H,23,24)/t12-,13-,14-,15-,16-/m0/s1

>  <INCHI_KEY>
InChIKey=IPVQLZZIHOAWMC-QXKUPLGCSA-N

>  <JCHEM_ACCEPTOR_COUNT>
5

>  <JCHEM_AVERAGE_POLARIZABILITY>
39.998444

>  <JCHEM_BIOAVAILABILITY>
1

>  <JCHEM_DONOR_COUNT>
2

>  <JCHEM_EXACT_MASS>
368.23111

>  <JCHEM_FORMAL_CHARGE>
0

>  <JCHEM_FORMULA>
C19H32N2O5

>  <JCHEM_GHOSE_FILTER>
1

>  <JCHEM_IUPAC>
(2S,3aS,7aS)-1-[(2S)-2-{[(2S)-1-ethoxy-1-oxopentan-2-yl]amino}propanoyl]-octahydro-1H-indole-2-carboxylic acid

>  <ALOGPS_LOGP>
0.56

>  <JCHEM_LOGP>
0.63074386

>  <ALOGPS_LOGS>
-2.48

>  <JCHEM_MASS>
368.4678

>  <JCHEM_MDDR_LIKE_RULE>
0

>  <JCHEM_NUMBER_OF_RINGS>
2

>  <JCHEM_PHYSIOLOGICAL_CHARGE>
-1

>  <JCHEM_PKA_STRONGEST_ACIDIC>
3.7860548

>  <JCHEM_PKA_STRONGEST_BASIC>
5.480288

>  <JCHEM_POLAR_SURFACE_AREA>
95.940002

>  <JCHEM_REFRACTIVITY>
95.692802

>  <JCHEM_ROTATABLE_BOND_COUNT>
9

>  <JCHEM_RULE_OF_FIVE>
1

>  <ALOGPS_SOLUBILITY>
1.22e+00 g/l

>  <JCHEM_TRADITIONAL_IUPAC>
perindopril

>  <JCHEM_VEBER_RULE>
0

>  <DRUGBANK_ID>
DB00790

>  <DRUG_GROUPS>
approved

>  <GENERIC_NAME>
Perindopril

>  <BRANDS>
Aceon; Coversyl

$$$$
Primidone
 OpenBabel02121510022D

 16 17  0  0  0  0  0  0  0  0999 V2000
    1.6500   -0.2470    0.0000 O   0  0  0  0  0  0  0  0  0  0  0  0
    4.5080   -0.2470    0.0000 O   0  0  0  0  0  0  0  0  0  0  0  0
    2.3640   -1.4840    0.0000 N   0  0  0  0  0  0  0  0  0  0  0  0
    3.7940   -1.4840    0.0000 N   0  0  0  0  0  0  0  0  0  0  0  0
    3.0790   -0.2470    0.0000 C   0  0  0  0  0  0  0  0  0  0  0  0
    2.6660    0.4680    0.0000 C   0  0  0  0  0  0  0  0  0  0  0  0
    3.4920    0.4680    0.0000 C   0  0  0  0  0  0  0  0  0  0  0  0
    2.3640   -0.6590    0.0000 C   0  0  0  0  0  0  0  0  0  0  0  0
    3.7940   -0.6590    0.0000 C   0  0  0  0  0  0  0  0  0  0  0  0
    3.0790   -1.8970    0.0000 C   0  0  0  0  0  0  0  0  0  0  0  0
    1.8420    0.4680    0.0000 C   0  0  0  0  0  0  0  0  0  0  0  0
    3.0790    1.1820    0.0000 C   0  0  0  0  0  0  0  0  0  0  0  0
    4.3170    0.4680    0.0000 C   0  0  0  0  0  0  0  0  0  0  0  0
    3.4920    1.8970    0.0000 C   0  0  0  0  0  0  0  0  0  0  0  0
    4.7290    1.1820    0.0000 C   0  0  0  0  0  0  0  0  0  0  0  0
    4.3170    1.8970    0.0000 C   0  0  0  0  0  0  0  0  0  0  0  0
  1  8  2  0  0  0  0
  2  9  2  0  0  0  0
  3  8  1  0  0  0  0
  3 10  1  0  0  0  0
  4  9  1  0  0  0  0
  4 10  1  0  0  0  0
  5  6  1  0  0  0  0
  5  7  1  0  0  0  0
  5  8  1  0  0  0  0
  5  9  1  0  0  0  0
  6 11  1  0  0  0  0
  7 12  2  0  0  0  0
  7 13  1  0  0  0  0
 12 14  1  0  0  0  0
 13 15  2  0  0  0  0
 14 16  2  0  0  0  0
 15 16  1  0  0  0  0
M  END
>  <DATABASE_ID>
DB00794

>  <DATABASE_NAME>
drugbank

>  <SMILES>
O=C1NCNC(=O)C1(CC)c1ccccc1

>  <INCHI_IDENTIFIER>
InChI=1S/C12H14N2O2/c1-2-12(9-6-4-3-5-7-9)10(15)13-8-14-11(12)16/h3-7H,2,8H2,1H3,(H,13,15)(H,14,16)

>  <INCHI_KEY>
InChIKey=DQMZLTXERSFNPB-UHFFFAOYSA-N

>  <JCHEM_ACCEPTOR_COUNT>
2

>  <JCHEM_AVERAGE_POLARIZABILITY>
22.443779

>  <JCHEM_BIOAVAILABILITY>
1

>  <JCHEM_DONOR_COUNT>
2

>  <JCHEM_EXACT_MASS>
218.10553

>  <JCHEM_FORMAL_CHARGE>
0

>  <JCHEM_FORMULA>
C12H14N2O2

>  <JCHEM_GHOSE_FILTER>
1

>  <JCHEM_IUPAC>
5-ethyl-5-phenyl-1,3-diazinane-4,6-dione

>  <ALOGPS_LOGP>
0.62

>  <JCHEM_LOGP>
1.1182989

>  <ALOGPS_LOGS>
-2.3199999

>  <JCHEM_MASS>
218.2518

>  <JCHEM_MDDR_LIKE_RULE>
0

>  <JCHEM_NUMBER_OF_RINGS>
2

>  <JCHEM_PHYSIOLOGICAL_CHARGE>
0

>  <JCHEM_PKA>
11.620389

>  <JCHEM_PKA_STRONGEST_ACIDIC>
11.497226

>  <JCHEM_PKA_STRONGEST_BASIC>
-6.1729074

>  <JCHEM_POLAR_SURFACE_AREA>
58.200001

>  <JCHEM_REFRACTIVITY>
59.037601

>  <JCHEM_ROTATABLE_BOND_COUNT>
2

>  <JCHEM_RULE_OF_FIVE>
1

>  <ALOGPS_SOLUBILITY>
1.04e+00 g/l

>  <JCHEM_TRADITIONAL_IUPAC>
primidone

>  <JCHEM_VEBER_RULE>
0

>  <DRUGBANK_ID>
DB00794

>  <DRUG_GROUPS>
approved

>  <GENERIC_NAME>
Primidone

>  <SYNONYMS>
Desoxyphenobarbital; Primaclone; Primidon; Primidona; Primidone; Primidonum

>  <BRANDS>
Liskantin; Mizodin; Mylepsinum; Mysoline; Pridona; Primid; Prysoline; Sertan

$$$$
Sulfasalazine
 OpenBabel02121510022D

 28 30  0  0  0  0  0  0  0  0999 V2000
   17.7330   -9.2770    0.0000 C   0  0  0  0  0  0  0  0  0  0  0  0
   18.4410   -8.8600    0.0000 S   0  0  0  0  0  0  0  0  0  0  0  0
   17.7330  -10.0990    0.0000 C   0  0  0  0  0  0  0  0  0  0  0  0
   17.0200   -8.8600    0.0000 C   0  0  0  0  0  0  0  0  0  0  0  0
   19.1570   -9.2770    0.0000 N   0  0  0  0  0  0  0  0  0  0  0  0
   17.7290   -8.2760    0.0000 O   0  0  0  0  0  0  0  0  0  0  0  0
   19.1790   -8.2760    0.0000 O   0  0  0  0  0  0  0  0  0  0  0  0
   17.0200  -10.5080    0.0000 C   0  0  0  0  0  0  0  0  0  0  0  0
   16.3120   -9.2770    0.0000 C   0  0  0  0  0  0  0  0  0  0  0  0
   19.8690   -8.8600    0.0000 C   0  0  0  0  0  0  0  0  0  0  0  0
   16.3120  -10.0990    0.0000 C   0  0  0  0  0  0  0  0  0  0  0  0
   19.8620   -8.0390    0.0000 C   0  0  0  0  0  0  0  0  0  0  0  0
   20.5820   -9.2700    0.0000 N   0  0  0  0  0  0  0  0  0  0  0  0
   15.5960  -10.5080    0.0000 N   0  0  0  0  0  0  0  0  0  0  0  0
   20.5740   -7.6260    0.0000 C   0  0  0  0  0  0  0  0  0  0  0  0
   21.2940   -8.8570    0.0000 C   0  0  0  0  0  0  0  0  0  0  0  0
   14.7700  -10.0730    0.0000 N   0  0  0  0  0  0  0  0  0  0  0  0
   21.2900   -8.0350    0.0000 C   0  0  0  0  0  0  0  0  0  0  0  0
   13.9630  -10.5410    0.0000 C   0  0  0  0  0  0  0  0  0  0  0  0
   13.9630  -11.4760    0.0000 C   0  0  0  0  0  0  0  0  0  0  0  0
   13.1560  -10.0730    0.0000 C   0  0  0  0  0  0  0  0  0  0  0  0
   13.1560  -11.9430    0.0000 C   0  0  0  0  0  0  0  0  0  0  0  0
   12.3450  -10.5410    0.0000 C   0  0  0  0  0  0  0  0  0  0  0  0
   12.3490  -11.4760    0.0000 C   0  0  0  0  0  0  0  0  0  0  0  0
   13.1560  -12.8780    0.0000 C   0  0  0  0  0  0  0  0  0  0  0  0
   11.5380  -11.9470    0.0000 O   0  0  0  0  0  0  0  0  0  0  0  0
   13.9670  -13.3460    0.0000 O   0  0  0  0  0  0  0  0  0  0  0  0
   12.3490  -13.3460    0.0000 O   0  0  0  0  0  0  0  0  0  0  0  0
  1  2  1  0  0  0  0
  1  3  2  0  0  0  0
  1  4  1  0  0  0  0
  2  5  1  0  0  0  0
  2  6  2  0  0  0  0
  2  7  2  0  0  0  0
  3  8  1  0  0  0  0
  4  9  2  0  0  0  0
  5 10  1  0  0  0  0
  8 11  2  0  0  0  0
  9 11  1  0  0  0  0
 10 12  2  0  0  0  0
 10 13  1  0  0  0  0
 11 14  1  0  0  0  0
 12 15  1  0  0  0  0
 13 16  2  0  0  0  0
 14 17  2  3  0  0  0
 15 18  2  0  0  0  0
 16 18  1  0  0  0  0
 17 19  1  0  0  0  0
 19 20  2  0  0  0  0
 19 21  1  0  0  0  0
 20 22  1  0  0  0  0
 21 23  2  0  0  0  0
 22 24  2  0  0  0  0
 22 25  1  0  0  0  0
 23 24  1  0  0  0  0
 24 26  1  0  0  0  0
 25 27  1  0  0  0  0
 25 28  2  0  0  0  0
M  END
>  <DATABASE_ID>
DB00795

>  <DATABASE_NAME>
drugbank

>  <SMILES>
S(=O)(=O)(Nc1ncccc1)c1ccc(\N=N\c2cc(C(O)=O)c(O)cc2)cc1

>  <INCHI_IDENTIFIER>
InChI=1S/C18H14N4O5S/c23-16-9-6-13(11-15(16)18(24)25)21-20-12-4-7-14(8-5-12)28(26,27)22-17-3-1-2-10-19-17/h1-11,23H,(H,19,22)(H,24,25)/b21-20+

>  <INCHI_KEY>
InChIKey=NCEXYHBECQHGNR-QZQOTICOSA-N

>  <JCHEM_ACCEPTOR_COUNT>
8

>  <JCHEM_AVERAGE_POLARIZABILITY>
39.685936

>  <JCHEM_BIOAVAILABILITY>
1

>  <JCHEM_DONOR_COUNT>
3

>  <JCHEM_EXACT_MASS>
398.06848

>  <JCHEM_FORMAL_CHARGE>
0

>  <JCHEM_FORMULA>
C18H14N4O5S

>  <JCHEM_GHOSE_FILTER>
1

>  <JCHEM_IUPAC>
2-hydroxy-5-[(E)-2-{4-[(pyridin-2-yl)sulfamoyl]phenyl}diazen-1-yl]benzoic acid

>  <ALOGPS_LOGP>
2.9200001

>  <JCHEM_LOGP>
3.9374347

>  <ALOGPS_LOGS>
-3.9300001

>  <JCHEM_MASS>
398.39301

>  <JCHEM_MDDR_LIKE_RULE>
0

>  <JCHEM_NUMBER_OF_RINGS>
3

>  <JCHEM_PHYSIOLOGICAL_CHARGE>
-2

>  <JCHEM_PKA>
6.7460718

>  <JCHEM_PKA_STRONGEST_ACIDIC>
3.2977388

>  <JCHEM_PKA_STRONGEST_BASIC>
2.4018807

>  <JCHEM_POLAR_SURFACE_AREA>
141.31

>  <JCHEM_REFRACTIVITY>
104.6029

>  <JCHEM_ROTATABLE_BOND_COUNT>
5

>  <JCHEM_RULE_OF_FIVE>
1

>  <ALOGPS_SOLUBILITY>
4.64e-02 g/l

>  <JCHEM_TRADITIONAL_IUPAC>
sulfasalazine

>  <JCHEM_VEBER_RULE>
0

>  <DRUGBANK_ID>
DB00795

>  <DRUG_GROUPS>
approved

>  <GENERIC_NAME>
Sulfasalazine

>  <SYNONYMS>
Azopyrin; Salazosulfapyridine; Sulfasalazin; Sulfasalazina ; Sulfasalazine; Sulfasalazinum

>  <BRANDS>
Asasurfan; Azulfdidina; Azulfidine; Azulfin; Bomecon; Colo-Pleon; Disalazin; Eminapyrin; Flogostop; Iwata; Lanofen; Lazafin; Pleon; Pyralin EN; Reumazin; Saaz; Saaz-DS; Salasopyrine; Salazar; Salazidin; Salazine; Salazopirina; Salazoprin; Salazopyrin; Salazopyrin EN; Salazopyrin EN-Tabs; Sulcolon; Sulfacol; Weiliufen; Zopyrin

$$$$
Candesartan
 OpenBabel02121510022D

 33 37  0  0  0  0  0  0  0  0999 V2000
    5.1660   -1.9610    0.0000 O   0  0  0  0  0  0  0  0  0  0  0  0
    1.6500    0.1010    0.0000 O   0  0  0  0  0  0  0  0  0  0  0  0
    3.0790    0.1010    0.0000 O   0  0  0  0  0  0  0  0  0  0  0  0
    3.8600   -1.2970    0.0000 N   0  0  0  0  0  0  0  0  0  0  0  0
    3.8600   -2.6250    0.0000 N   0  0  0  0  0  0  0  0  0  0  0  0
    6.2300    1.4810    0.0000 N   0  0  0  0  0  0  0  0  0  0  0  0
    7.2230    2.3720    0.0000 N   0  0  0  0  0  0  0  0  0  0  0  0
    5.8950    2.2350    0.0000 N   0  0  0  0  0  0  0  0  0  0  0  0
    6.5100    2.7860    0.0000 N   0  0  0  0  0  0  0  0  0  0  0  0
    4.1160   -0.5130    0.0000 C   0  0  0  0  0  0  0  0  0  0  0  0
    3.0790   -1.5490    0.0000 C   0  0  0  0  0  0  0  0  0  0  0  0
    4.9230   -0.3430    0.0000 C   0  0  0  0  0  0  0  0  0  0  0  0
    3.0790   -2.3740    0.0000 C   0  0  0  0  0  0  0  0  0  0  0  0
    4.3410   -1.9610    0.0000 C   0  0  0  0  0  0  0  0  0  0  0  0
    2.3640   -1.1360    0.0000 C   0  0  0  0  0  0  0  0  0  0  0  0
    5.1800    0.4410    0.0000 C   0  0  0  0  0  0  0  0  0  0  0  0
    5.4740   -0.9570    0.0000 C   0  0  0  0  0  0  0  0  0  0  0  0
    6.5380   -0.0030    0.0000 C   0  0  0  0  0  0  0  0  0  0  0  0
    2.3640   -2.7860    0.0000 C   0  0  0  0  0  0  0  0  0  0  0  0
    5.9870    0.6110    0.0000 C   0  0  0  0  0  0  0  0  0  0  0  0
    6.2810   -0.7870    0.0000 C   0  0  0  0  0  0  0  0  0  0  0  0
    1.6500   -1.5490    0.0000 C   0  0  0  0  0  0  0  0  0  0  0  0
    7.3450    0.1680    0.0000 C   0  0  0  0  0  0  0  0  0  0  0  0
    1.6500   -2.3740    0.0000 C   0  0  0  0  0  0  0  0  0  0  0  0
    7.6010    0.9520    0.0000 C   0  0  0  0  0  0  0  0  0  0  0  0
    2.3640   -0.3110    0.0000 C   0  0  0  0  0  0  0  0  0  0  0  0
    5.5790   -2.6760    0.0000 C   0  0  0  0  0  0  0  0  0  0  0  0
    7.8960   -0.4470    0.0000 C   0  0  0  0  0  0  0  0  0  0  0  0
    8.4090    1.1220    0.0000 C   0  0  0  0  0  0  0  0  0  0  0  0
    8.7030   -0.2760    0.0000 C   0  0  0  0  0  0  0  0  0  0  0  0
    7.0500    1.5660    0.0000 C   0  0  0  0  0  0  0  0  0  0  0  0
    8.9600    0.5080    0.0000 C   0  0  0  0  0  0  0  0  0  0  0  0
    6.4040   -2.6760    0.0000 C   0  0  0  0  0  0  0  0  0  0  0  0
  1 14  1  0  0  0  0
  1 27  1  0  0  0  0
  2 26  1  0  0  0  0
  3 26  2  0  0  0  0
  4 10  1  0  0  0  0
  4 11  1  0  0  0  0
  4 14  1  0  0  0  0
  5 13  1  0  0  0  0
  5 14  2  0  0  0  0
  6  8  1  0  0  0  0
  6 31  2  0  0  0  0
  7  9  2  0  0  0  0
  7 31  1  0  0  0  0
  8  9  1  0  0  0  0
 10 12  1  0  0  0  0
 11 13  2  0  0  0  0
 11 15  1  0  0  0  0
 12 16  2  0  0  0  0
 12 17  1  0  0  0  0
 13 19  1  0  0  0  0
 15 22  2  0  0  0  0
 15 26  1  0  0  0  0
 16 20  1  0  0  0  0
 17 21  2  0  0  0  0
 18 20  2  0  0  0  0
 18 21  1  0  0  0  0
 18 23  1  0  0  0  0
 19 24  2  0  0  0  0
 22 24  1  0  0  0  0
 23 25  2  0  0  0  0
 23 28  1  0  0  0  0
 25 29  1  0  0  0  0
 25 31  1  0  0  0  0
 27 33  1  0  0  0  0
 28 30  2  0  0  0  0
 29 32  2  0  0  0  0
 30 32  1  0  0  0  0
M  END
>  <DATABASE_ID>
DB00796

>  <DATABASE_NAME>
drugbank

>  <SMILES>
O(CC)c1nc2c(n1Cc1ccc(cc1)-c1ccccc1-c1nn[nH]n1)c(ccc2)C(O)=O

>  <INCHI_IDENTIFIER>
InChI=1S/C24H20N6O3/c1-2-33-24-25-20-9-5-8-19(23(31)32)21(20)30(24)14-15-10-12-16(13-11-15)17-6-3-4-7-18(17)22-26-28-29-27-22/h3-13H,2,14H2,1H3,(H,31,32)(H,26,27,28,29)

>  <INCHI_KEY>
InChIKey=HTQMVQVXFRQIKW-UHFFFAOYSA-N

>  <JCHEM_ACCEPTOR_COUNT>
7

>  <JCHEM_AVERAGE_POLARIZABILITY>
45.351418

>  <JCHEM_BIOAVAILABILITY>
1

>  <JCHEM_DONOR_COUNT>
2

>  <JCHEM_EXACT_MASS>
440.1597

>  <JCHEM_FORMAL_CHARGE>
0

>  <JCHEM_FORMULA>
C24H20N6O3

>  <JCHEM_GHOSE_FILTER>
0

>  <JCHEM_IUPAC>
2-ethoxy-1-({4-[2-(2H-1,2,3,4-tetrazol-5-yl)phenyl]phenyl}methyl)-1H-1,3-benzodiazole-7-carboxylic acid

>  <ALOGPS_LOGP>
4.02

>  <JCHEM_LOGP>
5.0461593

>  <ALOGPS_LOGS>
-4.7600002

>  <JCHEM_MASS>
440.45401

>  <JCHEM_MDDR_LIKE_RULE>
1

>  <JCHEM_NUMBER_OF_RINGS>
5

>  <JCHEM_PHYSIOLOGICAL_CHARGE>
-1

>  <JCHEM_PKA>
7.3997159

>  <JCHEM_PKA_STRONGEST_ACIDIC>
2.9726579

>  <JCHEM_PKA_STRONGEST_BASIC>
1.7056007

>  <JCHEM_POLAR_SURFACE_AREA>
118.81

>  <JCHEM_REFRACTIVITY>
134.9175

>  <JCHEM_ROTATABLE_BOND_COUNT>
7

>  <JCHEM_RULE_OF_FIVE>
0

>  <ALOGPS_SOLUBILITY>
7.71e-03 g/l

>  <JCHEM_TRADITIONAL_IUPAC>
candesartan

>  <JCHEM_VEBER_RULE>
0

>  <DRUGBANK_ID>
DB00796

>  <DRUG_GROUPS>
approved

>  <GENERIC_NAME>
Candesartan

>  <BRANDS>
Amias; Atacand; Blopress

$$$$
Halazepam
 OpenBabel02121510022D

 24 26  0  0  0  0  0  0  0  0999 V2000
    4.0270   -2.3990    0.0000 Cl  0  0  0  0  0  0  0  0  0  0  0  0
    2.8160    2.2810    0.0000 F   0  0  0  0  0  0  0  0  0  0  0  0
    1.6940    1.0710    0.0000 F   0  0  0  0  0  0  0  0  0  0  0  0
    1.6500    2.2370    0.0000 F   0  0  0  0  0  0  0  0  0  0  0  0
    4.2400    2.3990    0.0000 O   0  0  0  0  0  0  0  0  0  0  0  0
    3.6640    0.9310    0.0000 N   0  0  0  0  0  0  0  0  0  0  0  0
    5.5180    0.9310    0.0000 N   0  0  0  0  0  0  0  0  0  0  0  0
    3.8480    0.1270    0.0000 C   0  0  0  0  0  0  0  0  0  0  0  0
    4.5910   -0.2310    0.0000 C   0  0  0  0  0  0  0  0  0  0  0  0
    2.8600    1.1150    0.0000 C   0  0  0  0  0  0  0  0  0  0  0  0
    5.3340    0.1270    0.0000 C   0  0  0  0  0  0  0  0  0  0  0  0
    4.1780    1.5760    0.0000 C   0  0  0  0  0  0  0  0  0  0  0  0
    5.0030    1.5760    0.0000 C   0  0  0  0  0  0  0  0  0  0  0  0
    3.1300   -0.3460    0.0000 C   0  0  0  0  0  0  0  0  0  0  0  0
    4.6680   -1.0870    0.0000 C   0  0  0  0  0  0  0  0  0  0  0  0
    5.9790   -0.3880    0.0000 C   0  0  0  0  0  0  0  0  0  0  0  0
    2.2550    1.6760    0.0000 C   0  0  0  0  0  0  0  0  0  0  0  0
    3.1880   -1.2040    0.0000 C   0  0  0  0  0  0  0  0  0  0  0  0
    3.9620   -1.5760    0.0000 C   0  0  0  0  0  0  0  0  0  0  0  0
    6.7470   -0.0860    0.0000 C   0  0  0  0  0  0  0  0  0  0  0  0
    5.8560   -1.2030    0.0000 C   0  0  0  0  0  0  0  0  0  0  0  0
    7.3920   -0.6000    0.0000 C   0  0  0  0  0  0  0  0  0  0  0  0
    6.5010   -1.7180    0.0000 C   0  0  0  0  0  0  0  0  0  0  0  0
    7.2690   -1.4160    0.0000 C   0  0  0  0  0  0  0  0  0  0  0  0
  1 19  1  0  0  0  0
  2 17  1  0  0  0  0
  3 17  1  0  0  0  0
  4 17  1  0  0  0  0
  5 12  2  0  0  0  0
  6  8  1  0  0  0  0
  6 10  1  0  0  0  0
  6 12  1  0  0  0  0
  7 11  2  0  0  0  0
  7 13  1  0  0  0  0
  8  9  2  0  0  0  0
  8 14  1  0  0  0  0
  9 11  1  0  0  0  0
  9 15  1  0  0  0  0
 10 17  1  0  0  0  0
 11 16  1  0  0  0  0
 12 13  1  0  0  0  0
 14 18  2  0  0  0  0
 15 19  2  0  0  0  0
 16 20  2  0  0  0  0
 16 21  1  0  0  0  0
 18 19  1  0  0  0  0
 20 22  1  0  0  0  0
 21 23  2  0  0  0  0
 22 24  2  0  0  0  0
 23 24  1  0  0  0  0
M  END
>  <DATABASE_ID>
DB00801

>  <DATABASE_NAME>
drugbank

>  <SMILES>
Clc1cc2c(N(CC(F)(F)F)C(=O)CN=C2c2ccccc2)cc1

>  <INCHI_IDENTIFIER>
InChI=1S/C17H12ClF3N2O/c18-12-6-7-14-13(8-12)16(11-4-2-1-3-5-11)22-9-15(24)23(14)10-17(19,20)21/h1-8H,9-10H2

>  <INCHI_KEY>
InChIKey=WYCLKVQLVUQKNZ-UHFFFAOYSA-N

>  <JCHEM_ACCEPTOR_COUNT>
2

>  <JCHEM_AVERAGE_POLARIZABILITY>
31.824301

>  <JCHEM_BIOAVAILABILITY>
1

>  <JCHEM_DONOR_COUNT>
0

>  <JCHEM_EXACT_MASS>
352.05902

>  <JCHEM_FORMAL_CHARGE>
0

>  <JCHEM_FORMULA>
C17H12ClF3N2O

>  <JCHEM_GHOSE_FILTER>
1

>  <JCHEM_IUPAC>
7-chloro-5-phenyl-1-(2,2,2-trifluoroethyl)-2,3-dihydro-1H-1,4-benzodiazepin-2-one

>  <ALOGPS_LOGP>
3.52

>  <JCHEM_LOGP>
4.0311828

>  <ALOGPS_LOGS>
-5.3200002

>  <JCHEM_MASS>
352.73801

>  <JCHEM_MDDR_LIKE_RULE>
0

>  <JCHEM_NUMBER_OF_RINGS>
3

>  <JCHEM_PHYSIOLOGICAL_CHARGE>
0

>  <JCHEM_PKA_STRONGEST_ACIDIC>
18.878328

>  <JCHEM_PKA_STRONGEST_BASIC>
2.3251495

>  <JCHEM_POLAR_SURFACE_AREA>
32.669998

>  <JCHEM_REFRACTIVITY>
85.262001

>  <JCHEM_ROTATABLE_BOND_COUNT>
3

>  <JCHEM_RULE_OF_FIVE>
1

>  <ALOGPS_SOLUBILITY>
1.70e-03 g/l

>  <JCHEM_TRADITIONAL_IUPAC>
halazepam

>  <JCHEM_VEBER_RULE>
1

>  <DRUGBANK_ID>
DB00801

>  <DRUG_GROUPS>
approved; illicit; withdrawn

>  <GENERIC_NAME>
Halazepam

>  <SYNONYMS>
Halazepam; Halazépam; Halazepam; Halazepamum

>  <BRANDS>
Alapryl; Pacinone; Paxipam

$$$$
Dicyclomine
 OpenBabel02121510022D

 22 23  0  0  0  0  0  0  0  0999 V2000
    4.5380   -0.2470    0.0000 O   0  0  0  0  0  0  0  0  0  0  0  0
    5.5060    0.5660    0.0000 O   0  0  0  0  0  0  0  0  0  0  0  0
    2.8880    1.1820    0.0000 N   0  0  0  0  0  0  0  0  0  0  0  0
    5.7750   -0.9610    0.0000 C   0  0  0  0  0  0  0  0  0  0  0  0
    6.4070   -0.4310    0.0000 C   0  0  0  0  0  0  0  0  0  0  0  0
    5.0610   -1.3740    0.0000 C   0  0  0  0  0  0  0  0  0  0  0  0
    6.4900   -1.3740    0.0000 C   0  0  0  0  0  0  0  0  0  0  0  0
    6.2640    0.3820    0.0000 C   0  0  0  0  0  0  0  0  0  0  0  0
    7.1820   -0.7130    0.0000 C   0  0  0  0  0  0  0  0  0  0  0  0
    5.0610   -2.1990    0.0000 C   0  0  0  0  0  0  0  0  0  0  0  0
    6.4900   -2.1990    0.0000 C   0  0  0  0  0  0  0  0  0  0  0  0
    6.8960    0.9120    0.0000 C   0  0  0  0  0  0  0  0  0  0  0  0
    7.8140   -0.1830    0.0000 C   0  0  0  0  0  0  0  0  0  0  0  0
    5.7750   -2.6110    0.0000 C   0  0  0  0  0  0  0  0  0  0  0  0
    7.6710    0.6300    0.0000 C   0  0  0  0  0  0  0  0  0  0  0  0
    5.3630   -0.2470    0.0000 C   0  0  0  0  0  0  0  0  0  0  0  0
    4.1250    0.4680    0.0000 C   0  0  0  0  0  0  0  0  0  0  0  0
    3.3000    0.4680    0.0000 C   0  0  0  0  0  0  0  0  0  0  0  0
    2.0620    1.1820    0.0000 C   0  0  0  0  0  0  0  0  0  0  0  0
    3.3000    1.8970    0.0000 C   0  0  0  0  0  0  0  0  0  0  0  0
    1.6500    1.8970    0.0000 C   0  0  0  0  0  0  0  0  0  0  0  0
    2.8880    2.6110    0.0000 C   0  0  0  0  0  0  0  0  0  0  0  0
  1 16  1  0  0  0  0
  1 17  1  0  0  0  0
  2 16  2  0  0  0  0
  3 18  1  0  0  0  0
  3 19  1  0  0  0  0
  3 20  1  0  0  0  0
  4  5  1  0  0  0  0
  4  6  1  0  0  0  0
  4  7  1  0  0  0  0
  4 16  1  0  0  0  0
  5  8  1  0  0  0  0
  5  9  1  0  0  0  0
  6 10  1  0  0  0  0
  7 11  1  0  0  0  0
  8 12  1  0  0  0  0
  9 13  1  0  0  0  0
 10 14  1  0  0  0  0
 11 14  1  0  0  0  0
 12 15  1  0  0  0  0
 13 15  1  0  0  0  0
 17 18  1  0  0  0  0
 19 21  1  0  0  0  0
 20 22  1  0  0  0  0
M  END
>  <DATABASE_ID>
DB00804

>  <DATABASE_NAME>
drugbank

>  <SMILES>
O(C(=O)C1(CCCCC1)C1CCCCC1)CCN(CC)CC

>  <INCHI_IDENTIFIER>
InChI=1S/C19H35NO2/c1-3-20(4-2)15-16-22-18(21)19(13-9-6-10-14-19)17-11-7-5-8-12-17/h17H,3-16H2,1-2H3

>  <INCHI_KEY>
InChIKey=CURUTKGFNZGFSE-UHFFFAOYSA-N

>  <JCHEM_ACCEPTOR_COUNT>
2

>  <JCHEM_AVERAGE_POLARIZABILITY>
37.385273

>  <JCHEM_BIOAVAILABILITY>
1

>  <JCHEM_DONOR_COUNT>
0

>  <JCHEM_EXACT_MASS>
309.26678

>  <JCHEM_FORMAL_CHARGE>
0

>  <JCHEM_FORMULA>
C19H35NO2

>  <JCHEM_GHOSE_FILTER>
1

>  <JCHEM_IUPAC>
2-(diethylamino)ethyl 1-cyclohexylcyclohexane-1-carboxylate

>  <ALOGPS_LOGP>
5.8200002

>  <JCHEM_LOGP>
4.9258933

>  <ALOGPS_LOGS>
-4.98

>  <JCHEM_MASS>
309.48669

>  <JCHEM_MDDR_LIKE_RULE>
0

>  <JCHEM_NUMBER_OF_RINGS>
2

>  <JCHEM_PHYSIOLOGICAL_CHARGE>
1

>  <JCHEM_PKA_STRONGEST_BASIC>
8.9620523

>  <JCHEM_POLAR_SURFACE_AREA>
29.540001

>  <JCHEM_REFRACTIVITY>
91.7827

>  <JCHEM_ROTATABLE_BOND_COUNT>
8

>  <JCHEM_RULE_OF_FIVE>
1

>  <ALOGPS_SOLUBILITY>
3.27e-03 g/l

>  <JCHEM_TRADITIONAL_IUPAC>
dicyclomine

>  <JCHEM_VEBER_RULE>
1

>  <DRUGBANK_ID>
DB00804

>  <DRUG_GROUPS>
approved

>  <GENERIC_NAME>
Dicyclomine

>  <SYNONYMS>
Dicicloverina; Dicycloverin; Dicycloverine; Dicycloverinum

>  <BRANDS>
Bentyl; Bentylol; Byclomine; Di-Spaz; Dibent; Dilomine; Dyspas; Merbentyl

>  <SALTS>
Dicyclomine Hydrochloride

$$$$
Pentoxifylline
 OpenBabel02121510022D

 20 21  0  0  0  0  0  0  0  0999 V2000
    6.6520    1.6500    0.0000 O   0  0  0  0  0  0  0  0  0  0  0  0
    5.2220   -0.8250    0.0000 O   0  0  0  0  0  0  0  0  0  0  0  0
    2.3640    1.6500    0.0000 O   0  0  0  0  0  0  0  0  0  0  0  0
    5.9370    0.4120    0.0000 N   0  0  0  0  0  0  0  0  0  0  0  0
    6.6520   -0.8250    0.0000 N   0  0  0  0  0  0  0  0  0  0  0  0
    8.1470    0.6640    0.0000 N   0  0  0  0  0  0  0  0  0  0  0  0
    8.1470   -0.6640    0.0000 N   0  0  0  0  0  0  0  0  0  0  0  0
    5.2220    0.8250    0.0000 C   0  0  0  0  0  0  0  0  0  0  0  0
    4.5080    0.4120    0.0000 C   0  0  0  0  0  0  0  0  0  0  0  0
    3.7940    0.8250    0.0000 C   0  0  0  0  0  0  0  0  0  0  0  0
    7.3660    0.4120    0.0000 C   0  0  0  0  0  0  0  0  0  0  0  0
    6.6520    0.8250    0.0000 C   0  0  0  0  0  0  0  0  0  0  0  0
    7.3660   -0.4120    0.0000 C   0  0  0  0  0  0  0  0  0  0  0  0
    5.9370   -0.4120    0.0000 C   0  0  0  0  0  0  0  0  0  0  0  0
    3.0790    0.4120    0.0000 C   0  0  0  0  0  0  0  0  0  0  0  0
    8.6280    0.0000    0.0000 C   0  0  0  0  0  0  0  0  0  0  0  0
    6.6520   -1.6500    0.0000 C   0  0  0  0  0  0  0  0  0  0  0  0
    8.4030    1.4480    0.0000 C   0  0  0  0  0  0  0  0  0  0  0  0
    2.3640    0.8250    0.0000 C   0  0  0  0  0  0  0  0  0  0  0  0
    1.6500    0.4120    0.0000 C   0  0  0  0  0  0  0  0  0  0  0  0
  1 12  2  0  0  0  0
  2 14  2  0  0  0  0
  3 19  2  0  0  0  0
  4  8  1  0  0  0  0
  4 12  1  0  0  0  0
  4 14  1  0  0  0  0
  5 13  1  0  0  0  0
  5 14  1  0  0  0  0
  5 17  1  0  0  0  0
  6 11  1  0  0  0  0
  6 16  1  0  0  0  0
  6 18  1  0  0  0  0
  7 13  1  0  0  0  0
  7 16  2  0  0  0  0
  8  9  1  0  0  0  0
  9 10  1  0  0  0  0
 10 15  1  0  0  0  0
 11 12  1  0  0  0  0
 11 13  2  0  0  0  0
 15 19  1  0  0  0  0
 19 20  1  0  0  0  0
M  END
>  <DATABASE_ID>
DB00806

>  <DATABASE_NAME>
drugbank

>  <SMILES>
O=C1N(CCCCC(=O)C)C(=O)N(c2ncn(c12)C)C

>  <INCHI_IDENTIFIER>
InChI=1S/C13H18N4O3/c1-9(18)6-4-5-7-17-12(19)10-11(14-8-15(10)2)16(3)13(17)20/h8H,4-7H2,1-3H3

>  <INCHI_KEY>
InChIKey=BYPFEZZEUUWMEJ-UHFFFAOYSA-N

>  <JCHEM_ACCEPTOR_COUNT>
4

>  <JCHEM_AVERAGE_POLARIZABILITY>
29.269594

>  <JCHEM_BIOAVAILABILITY>
1

>  <JCHEM_DONOR_COUNT>
0

>  <JCHEM_EXACT_MASS>
278.13788

>  <JCHEM_FORMAL_CHARGE>
0

>  <JCHEM_FORMULA>
C13H18N4O3

>  <JCHEM_GHOSE_FILTER>
1

>  <JCHEM_IUPAC>
3,7-dimethyl-1-(5-oxohexyl)-2,3,6,7-tetrahydro-1H-purine-2,6-dione

>  <ALOGPS_LOGP>
0.079999998

>  <JCHEM_LOGP>
0.23220585

>  <ALOGPS_LOGS>
-1.73

>  <JCHEM_MASS>
278.30701

>  <JCHEM_MDDR_LIKE_RULE>
0

>  <JCHEM_NUMBER_OF_RINGS>
2

>  <JCHEM_PHYSIOLOGICAL_CHARGE>
0

>  <JCHEM_PKA_STRONGEST_ACIDIC>
19.642868

>  <JCHEM_PKA_STRONGEST_BASIC>
-0.9270916

>  <JCHEM_POLAR_SURFACE_AREA>
75.510002

>  <JCHEM_REFRACTIVITY>
73.522301

>  <JCHEM_ROTATABLE_BOND_COUNT>
5

>  <JCHEM_RULE_OF_FIVE>
1

>  <ALOGPS_SOLUBILITY>
5.17e+00 g/l

>  <JCHEM_TRADITIONAL_IUPAC>
pentoxifylline

>  <JCHEM_VEBER_RULE>
0

>  <DRUGBANK_ID>
DB00806

>  <DRUG_GROUPS>
approved; investigational

>  <GENERIC_NAME>
Pentoxifylline

>  <SYNONYMS>
Oxpentifylline; Pentoxifilina; Pentoxifyllin; Pentoxifylline; Pentoxifyllinum

>  <BRANDS>
Agapurin; Agapurin SR; An Ruo Ning; Angiopent; Ao Le Ni; Ao Nuo Hong; Aotong; Azupentat; Behrifil; Bo Shu Te; Claudicat; Durapental; Elorgan; Endopentoksas; Pentilin; Pentilin Retard; Pentoflux; Pentofyllin; Pentoksifilin; Pentolab; Pentomer; Pentoxil; Rentylin; Torental; Trental; Trentilin Retard

$$$$
Indapamide
 OpenBabel02121510022D

 24 26  0  0  1  0  0  0  0  0999 V2000
    5.9480    2.7900    0.0000 Cl  0  0  0  0  0  0  0  0  0  0  0  0
    7.0500    1.5620    0.0000 S   0  0  0  0  0  0  0  0  0  0  0  0
    5.4740   -0.9610    0.0000 O   0  0  0  0  0  0  0  0  0  0  0  0
    6.8800    2.3690    0.0000 O   0  0  0  0  0  0  0  0  0  0  0  0
    7.2200    0.7550    0.0000 O   0  0  0  0  0  0  0  0  0  0  0  0
    3.8600   -1.3010    0.0000 N   0  0  0  0  0  0  0  0  0  0  0  0
    4.1160   -0.5170    0.0000 N   0  0  0  0  0  0  0  0  0  0  0  0
    7.8580    1.7320    0.0000 N   0  0  0  0  0  0  0  0  0  0  0  0
    4.3410   -1.9650    0.0000 C   0  0  3  0  0  0  0  0  0  0  0  0
    3.8600   -2.6290    0.0000 C   0  0  0  0  0  0  0  0  0  0  0  0
    3.0790   -2.3780    0.0000 C   0  0  0  0  0  0  0  0  0  0  0  0
    3.0790   -1.5520    0.0000 C   0  0  0  0  0  0  0  0  0  0  0  0
    5.1660   -1.9650    0.0000 C   0  0  0  0  0  0  0  0  0  0  0  0
    2.3640   -2.7900    0.0000 C   0  0  0  0  0  0  0  0  0  0  0  0
    2.3640   -1.1400    0.0000 C   0  0  0  0  0  0  0  0  0  0  0  0
    1.6500   -2.3780    0.0000 C   0  0  0  0  0  0  0  0  0  0  0  0
    1.6500   -1.5520    0.0000 C   0  0  0  0  0  0  0  0  0  0  0  0
    4.9230   -0.3470    0.0000 C   0  0  0  0  0  0  0  0  0  0  0  0
    5.1800    0.4370    0.0000 C   0  0  0  0  0  0  0  0  0  0  0  0
    5.9870    0.6080    0.0000 C   0  0  0  0  0  0  0  0  0  0  0  0
    6.2430    1.3920    0.0000 C   0  0  0  0  0  0  0  0  0  0  0  0
    4.6280    1.0520    0.0000 C   0  0  0  0  0  0  0  0  0  0  0  0
    5.6920    2.0060    0.0000 C   0  0  0  0  0  0  0  0  0  0  0  0
    4.8850    1.8360    0.0000 C   0  0  0  0  0  0  0  0  0  0  0  0
  1 23  1  0  0  0  0
  2  4  2  0  0  0  0
  2  5  2  0  0  0  0
  2  8  1  0  0  0  0
  2 21  1  0  0  0  0
  3 18  2  0  0  0  0
  6  7  1  0  0  0  0
  6  9  1  0  0  0  0
  6 12  1  0  0  0  0
  7 18  1  0  0  0  0
  9 10  1  0  0  0  0
  9 13  1  0  0  0  0
 10 11  1  0  0  0  0
 11 12  2  0  0  0  0
 11 14  1  0  0  0  0
 12 15  1  0  0  0  0
 14 16  2  0  0  0  0
 15 17  2  0  0  0  0
 16 17  1  0  0  0  0
 18 19  1  0  0  0  0
 19 20  2  0  0  0  0
 19 22  1  0  0  0  0
 20 21  1  0  0  0  0
 21 23  2  0  0  0  0
 22 24  2  0  0  0  0
 23 24  1  0  0  0  0
M  END
>  <DATABASE_ID>
DB00808

>  <DATABASE_NAME>
drugbank

>  <SMILES>
Clc1ccc(cc1S(=O)(=O)N)C(=O)NN1c2c(CC1C)cccc2

>  <INCHI_IDENTIFIER>
InChI=1S/C16H16ClN3O3S/c1-10-8-11-4-2-3-5-14(11)20(10)19-16(21)12-6-7-13(17)15(9-12)24(18,22)23/h2-7,9-10H,8H2,1H3,(H,19,21)(H2,18,22,23)

>  <INCHI_KEY>
InChIKey=NDDAHWYSQHTHNT-UHFFFAOYSA-N

>  <JCHEM_ACCEPTOR_COUNT>
4

>  <JCHEM_AVERAGE_POLARIZABILITY>
36.33519

>  <JCHEM_BIOAVAILABILITY>
1

>  <JCHEM_DONOR_COUNT>
2

>  <JCHEM_EXACT_MASS>
365.06009

>  <JCHEM_FORMAL_CHARGE>
0

>  <JCHEM_FORMULA>
C16H16ClN3O3S

>  <JCHEM_GHOSE_FILTER>
1

>  <JCHEM_IUPAC>
4-chloro-N-(2-methyl-2,3-dihydro-1H-indol-1-yl)-3-sulfamoylbenzamide

>  <ALOGPS_LOGP>
2.52

>  <JCHEM_LOGP>
2.6395442

>  <ALOGPS_LOGS>
-4.0300002

>  <JCHEM_MASS>
365.83499

>  <JCHEM_MDDR_LIKE_RULE>
0

>  <JCHEM_NUMBER_OF_RINGS>
3

>  <JCHEM_PHYSIOLOGICAL_CHARGE>
0

>  <JCHEM_PKA>
11.687086

>  <JCHEM_PKA_STRONGEST_ACIDIC>
8.8522692

>  <JCHEM_PKA_STRONGEST_BASIC>
0.09715835

>  <JCHEM_POLAR_SURFACE_AREA>
92.5

>  <JCHEM_REFRACTIVITY>
103.3134

>  <JCHEM_ROTATABLE_BOND_COUNT>
3

>  <JCHEM_RULE_OF_FIVE>
1

>  <ALOGPS_SOLUBILITY>
3.42e-02 g/l

>  <JCHEM_TRADITIONAL_IUPAC>
indapamide

>  <JCHEM_VEBER_RULE>
0

>  <DRUGBANK_ID>
DB00808

>  <DRUG_GROUPS>
approved

>  <GENERIC_NAME>
Indapamide

>  <SYNONYMS>
Indapamid; Indapamida; Indapamide; Indapamidum; Metindamide

>  <BRANDS>
Arifon; Bajaten; Fludex; Indamol; Ipamix; Lozide; Lozol; Natrilix; Natrix; Noranat; Tandix; Tertensif; Veroxil

$$$$
Biperiden
 OpenBabel02121510022D

 23 26  0  0  1  0  0  0  0  0999 V2000
    6.1300    0.0100    0.0000 O   0  0  0  0  0  0  0  0  0  0  0  0
    3.2720   -0.8150    0.0000 N   0  0  0  0  0  0  0  0  0  0  0  0
    5.0030    0.3120    0.0000 C   0  0  3  0  0  0  0  0  0  0  0  0
    3.4920    0.9380    0.0000 C   0  0  3  0  0  0  0  0  0  0  0  0
    3.7050    1.7350    0.0000 C   0  0  3  0  0  0  0  0  0  0  0  0
    5.2160    1.1090    0.0000 C   0  0  0  0  0  0  0  0  0  0  0  0
    3.0970    2.5460    0.0000 C   0  0  0  0  0  0  0  0  0  0  0  0
    5.4150   -0.4020    0.0000 C   0  0  3  0  0  0  0  0  0  0  0  0
    2.0620    0.1130    0.0000 C   0  0  0  0  0  0  0  0  0  0  0  0
    1.6500    0.8280    0.0000 C   0  0  0  0  0  0  0  0  0  0  0  0
    4.7010   -0.8150    0.0000 C   0  0  0  0  0  0  0  0  0  0  0  0
    5.8280   -1.1170    0.0000 C   0  0  0  0  0  0  0  0  0  0  0  0
    3.9860   -0.4020    0.0000 C   0  0  0  0  0  0  0  0  0  0  0  0
    6.6530   -1.1170    0.0000 C   0  0  0  0  0  0  0  0  0  0  0  0
    5.4150   -1.8310    0.0000 C   0  0  0  0  0  0  0  0  0  0  0  0
    2.5580   -0.4020    0.0000 C   0  0  0  0  0  0  0  0  0  0  0  0
    3.2720   -1.6400    0.0000 C   0  0  0  0  0  0  0  0  0  0  0  0
    1.8430   -0.8150    0.0000 C   0  0  0  0  0  0  0  0  0  0  0  0
    2.5580   -2.0520    0.0000 C   0  0  0  0  0  0  0  0  0  0  0  0
    1.8430   -1.6400    0.0000 C   0  0  0  0  0  0  0  0  0  0  0  0
    7.0660   -1.8310    0.0000 C   0  0  0  0  0  0  0  0  0  0  0  0
    5.8280   -2.5460    0.0000 C   0  0  0  0  0  0  0  0  0  0  0  0
    6.6530   -2.5460    0.0000 C   0  0  0  0  0  0  0  0  0  0  0  0
  1  8  1  0  0  0  0
  2 13  1  0  0  0  0
  2 16  1  0  0  0  0
  2 17  1  0  0  0  0
  3  4  1  0  0  0  0
  3  6  1  0  0  0  0
  3  8  1  0  0  0  0
  4  7  1  0  0  0  0
  4  9  1  0  0  0  0
  5  6  1  0  0  0  0
  5  7  1  0  0  0  0
  5 10  1  0  0  0  0
  8 11  1  0  0  0  0
  8 12  1  0  0  0  0
  9 10  2  0  0  0  0
 11 13  1  0  0  0  0
 12 14  2  0  0  0  0
 12 15  1  0  0  0  0
 14 21  1  0  0  0  0
 15 22  2  0  0  0  0
 16 18  1  0  0  0  0
 17 19  1  0  0  0  0
 18 20  1  0  0  0  0
 19 20  1  0  0  0  0
 21 23  2  0  0  0  0
 22 23  1  0  0  0  0
M  END
>  <DATABASE_ID>
DB00810

>  <DATABASE_NAME>
drugbank

>  <SMILES>
OC(CCN1CCCCC1)(C1C2CC(C1)C=C2)c1ccccc1

>  <INCHI_IDENTIFIER>
InChI=1S/C21H29NO/c23-21(19-7-3-1-4-8-19,11-14-22-12-5-2-6-13-22)20-16-17-9-10-18(20)15-17/h1,3-4,7-10,17-18,20,23H,2,5-6,11-16H2

>  <INCHI_KEY>
InChIKey=YSXKPIUOCJLQIE-UHFFFAOYSA-N

>  <JCHEM_ACCEPTOR_COUNT>
2

>  <JCHEM_AVERAGE_POLARIZABILITY>
36.743298

>  <JCHEM_BIOAVAILABILITY>
1

>  <JCHEM_DONOR_COUNT>
1

>  <JCHEM_EXACT_MASS>
311.22491

>  <JCHEM_FORMAL_CHARGE>
0

>  <JCHEM_FORMULA>
C21H29NO

>  <JCHEM_GHOSE_FILTER>
1

>  <JCHEM_IUPAC>
1-{bicyclo[2.2.1]hept-5-en-2-yl}-1-phenyl-3-(piperidin-1-yl)propan-1-ol

>  <ALOGPS_LOGP>
4.2800002

>  <JCHEM_LOGP>
3.5365074

>  <ALOGPS_LOGS>
-4.8600001

>  <JCHEM_MASS>
311.46109

>  <JCHEM_MDDR_LIKE_RULE>
0

>  <JCHEM_NUMBER_OF_RINGS>
4

>  <JCHEM_PHYSIOLOGICAL_CHARGE>
1

>  <JCHEM_PKA_STRONGEST_ACIDIC>
13.820097

>  <JCHEM_PKA_STRONGEST_BASIC>
9.2979956

>  <JCHEM_POLAR_SURFACE_AREA>
23.469999

>  <JCHEM_REFRACTIVITY>
97.0158

>  <JCHEM_ROTATABLE_BOND_COUNT>
5

>  <JCHEM_RULE_OF_FIVE>
1

>  <ALOGPS_SOLUBILITY>
4.26e-03 g/l

>  <JCHEM_TRADITIONAL_IUPAC>
biperiden

>  <JCHEM_VEBER_RULE>
1

>  <DRUGBANK_ID>
DB00810

>  <DRUG_GROUPS>
approved

>  <GENERIC_NAME>
Biperiden

>  <SYNONYMS>
Biperidene; Biperideno; Biperidenum

>  <BRANDS>
Akineton; Bilino; Ipsatol

>  <SALTS>
Biperiden Hydrochloride

$$$$
Phenylbutazone
 OpenBabel02121510022D

 23 25  0  0  0  0  0  0  0  0999 V2000
    4.0000    1.1190    0.0000 O   0  0  0  0  0  0  0  0  0  0  0  0
    1.6500   -0.5880    0.0000 O   0  0  0  0  0  0  0  0  0  0  0  0
    3.7700   -0.3340    0.0000 N   0  0  0  0  0  0  0  0  0  0  0  0
    3.1020   -0.8180    0.0000 N   0  0  0  0  0  0  0  0  0  0  0  0
    2.6900    0.4510    0.0000 C   0  0  0  0  0  0  0  0  0  0  0  0
    2.2050    1.1190    0.0000 C   0  0  0  0  0  0  0  0  0  0  0  0
    3.5150    0.4510    0.0000 C   0  0  0  0  0  0  0  0  0  0  0  0
    2.4350   -0.3340    0.0000 C   0  0  0  0  0  0  0  0  0  0  0  0
    2.5400    1.8720    0.0000 C   0  0  0  0  0  0  0  0  0  0  0  0
    2.0550    2.5400    0.0000 C   0  0  0  0  0  0  0  0  0  0  0  0
    4.5540   -0.5880    0.0000 C   0  0  0  0  0  0  0  0  0  0  0  0
    3.1020   -1.6430    0.0000 C   0  0  0  0  0  0  0  0  0  0  0  0
    2.3910    3.2930    0.0000 C   0  0  0  0  0  0  0  0  0  0  0  0
    5.1670   -0.0360    0.0000 C   0  0  0  0  0  0  0  0  0  0  0  0
    3.8170   -2.0560    0.0000 C   0  0  0  0  0  0  0  0  0  0  0  0
    4.7260   -1.3950    0.0000 C   0  0  0  0  0  0  0  0  0  0  0  0
    2.3880   -2.0560    0.0000 C   0  0  0  0  0  0  0  0  0  0  0  0
    5.9520   -0.2910    0.0000 C   0  0  0  0  0  0  0  0  0  0  0  0
    3.8170   -2.8810    0.0000 C   0  0  0  0  0  0  0  0  0  0  0  0
    5.5100   -1.6500    0.0000 C   0  0  0  0  0  0  0  0  0  0  0  0
    2.3880   -2.8810    0.0000 C   0  0  0  0  0  0  0  0  0  0  0  0
    6.1230   -1.0980    0.0000 C   0  0  0  0  0  0  0  0  0  0  0  0
    3.1020   -3.2930    0.0000 C   0  0  0  0  0  0  0  0  0  0  0  0
  1  7  2  0  0  0  0
  2  8  2  0  0  0  0
  3  4  1  0  0  0  0
  3  7  1  0  0  0  0
  3 11  1  0  0  0  0
  4  8  1  0  0  0  0
  4 12  1  0  0  0  0
  5  6  1  0  0  0  0
  5  7  1  0  0  0  0
  5  8  1  0  0  0  0
  6  9  1  0  0  0  0
  9 10  1  0  0  0  0
 10 13  1  0  0  0  0
 11 14  2  0  0  0  0
 11 16  1  0  0  0  0
 12 15  2  0  0  0  0
 12 17  1  0  0  0  0
 14 18  1  0  0  0  0
 15 19  1  0  0  0  0
 16 20  2  0  0  0  0
 17 21  2  0  0  0  0
 18 22  2  0  0  0  0
 19 23  2  0  0  0  0
 20 22  1  0  0  0  0
 21 23  1  0  0  0  0
M  END
>  <DATABASE_ID>
DB00812

>  <DATABASE_NAME>
drugbank

>  <SMILES>
O=C1N(N(C(=O)C1CCCC)c1ccccc1)c1ccccc1

>  <INCHI_IDENTIFIER>
InChI=1S/C19H20N2O2/c1-2-3-14-17-18(22)20(15-10-6-4-7-11-15)21(19(17)23)16-12-8-5-9-13-16/h4-13,17H,2-3,14H2,1H3

>  <INCHI_KEY>
InChIKey=VYMDGNCVAMGZFE-UHFFFAOYSA-N

>  <JCHEM_ACCEPTOR_COUNT>
2

>  <JCHEM_AVERAGE_POLARIZABILITY>
34.153454

>  <JCHEM_BIOAVAILABILITY>
1

>  <JCHEM_DONOR_COUNT>
0

>  <JCHEM_EXACT_MASS>
308.15247

>  <JCHEM_FORMAL_CHARGE>
0

>  <JCHEM_FORMULA>
C19H20N2O2

>  <JCHEM_GHOSE_FILTER>
1

>  <JCHEM_IUPAC>
4-butyl-1,2-diphenylpyrazolidine-3,5-dione

>  <ALOGPS_LOGP>
2.8099999

>  <JCHEM_LOGP>
4.135798

>  <ALOGPS_LOGS>
-3.3299999

>  <JCHEM_MASS>
308.3743

>  <JCHEM_MDDR_LIKE_RULE>
0

>  <JCHEM_NUMBER_OF_RINGS>
3

>  <JCHEM_PHYSIOLOGICAL_CHARGE>
-1

>  <JCHEM_PKA_STRONGEST_ACIDIC>
5.1349697

>  <JCHEM_POLAR_SURFACE_AREA>
40.619999

>  <JCHEM_REFRACTIVITY>
88.758301

>  <JCHEM_ROTATABLE_BOND_COUNT>
5

>  <JCHEM_RULE_OF_FIVE>
1

>  <ALOGPS_SOLUBILITY>
1.44e-01 g/l

>  <JCHEM_TRADITIONAL_IUPAC>
phenylbutazone

>  <JCHEM_VEBER_RULE>
0

>  <DRUGBANK_ID>
DB00812

>  <DRUG_GROUPS>
approved

>  <GENERIC_NAME>
Phenylbutazone

>  <SYNONYMS>
3,5-Dioxo-1,2-diphenyl-4-n-butylpyrazolidine; 4-n-Butyl-1,2-diphenyl-3,5-pyrazolidinedione; Phenbutazone

>  <BRANDS>
Azolid

$$$$
Fentanyl
 OpenBabel02121510022D

 25 27  0  0  0  0  0  0  0  0999 V2000
    1.6500    2.2690    0.0000 O   0  0  0  0  0  0  0  0  0  0  0  0
    3.0790   -0.2060    0.0000 N   0  0  0  0  0  0  0  0  0  0  0  0
    3.0790    2.2690    0.0000 N   0  0  0  0  0  0  0  0  0  0  0  0
    3.0790    1.4440    0.0000 C   0  0  0  0  0  0  0  0  0  0  0  0
    3.7940    1.0310    0.0000 C   0  0  0  0  0  0  0  0  0  0  0  0
    2.3640    1.0310    0.0000 C   0  0  0  0  0  0  0  0  0  0  0  0
    3.7940    0.2060    0.0000 C   0  0  0  0  0  0  0  0  0  0  0  0
    2.3640    0.2060    0.0000 C   0  0  0  0  0  0  0  0  0  0  0  0
    3.0790   -1.0310    0.0000 C   0  0  0  0  0  0  0  0  0  0  0  0
    2.3640   -1.4440    0.0000 C   0  0  0  0  0  0  0  0  0  0  0  0
    3.7940    2.6810    0.0000 C   0  0  0  0  0  0  0  0  0  0  0  0
    2.3640    2.6810    0.0000 C   0  0  0  0  0  0  0  0  0  0  0  0
    2.3640   -2.2690    0.0000 C   0  0  0  0  0  0  0  0  0  0  0  0
    2.3640    3.5060    0.0000 C   0  0  0  0  0  0  0  0  0  0  0  0
    3.7940    3.5060    0.0000 C   0  0  0  0  0  0  0  0  0  0  0  0
    4.5080    2.2690    0.0000 C   0  0  0  0  0  0  0  0  0  0  0  0
    1.6500    3.9190    0.0000 C   0  0  0  0  0  0  0  0  0  0  0  0
    3.0790   -2.6810    0.0000 C   0  0  0  0  0  0  0  0  0  0  0  0
    1.6500   -2.6810    0.0000 C   0  0  0  0  0  0  0  0  0  0  0  0
    4.5080    3.9190    0.0000 C   0  0  0  0  0  0  0  0  0  0  0  0
    5.2220    2.6810    0.0000 C   0  0  0  0  0  0  0  0  0  0  0  0
    5.2220    3.5060    0.0000 C   0  0  0  0  0  0  0  0  0  0  0  0
    3.0790   -3.5060    0.0000 C   0  0  0  0  0  0  0  0  0  0  0  0
    1.6500   -3.5060    0.0000 C   0  0  0  0  0  0  0  0  0  0  0  0
    2.3640   -3.9190    0.0000 C   0  0  0  0  0  0  0  0  0  0  0  0
  1 12  2  0  0  0  0
  2  7  1  0  0  0  0
  2  8  1  0  0  0  0
  2  9  1  0  0  0  0
  3  4  1  0  0  0  0
  3 11  1  0  0  0  0
  3 12  1  0  0  0  0
  4  5  1  0  0  0  0
  4  6  1  0  0  0  0
  5  7  1  0  0  0  0
  6  8  1  0  0  0  0
  9 10  1  0  0  0  0
 10 13  1  0  0  0  0
 11 15  2  0  0  0  0
 11 16  1  0  0  0  0
 12 14  1  0  0  0  0
 13 18  2  0  0  0  0
 13 19  1  0  0  0  0
 14 17  1  0  0  0  0
 15 20  1  0  0  0  0
 16 21  2  0  0  0  0
 18 23  1  0  0  0  0
 19 24  2  0  0  0  0
 20 22  2  0  0  0  0
 21 22  1  0  0  0  0
 23 25  2  0  0  0  0
 24 25  1  0  0  0  0
M  END
>  <DATABASE_ID>
DB00813

>  <DATABASE_NAME>
drugbank

>  <SMILES>
O=C(N(C1CCN(CC1)CCc1ccccc1)c1ccccc1)CC

>  <INCHI_IDENTIFIER>
InChI=1S/C22H28N2O/c1-2-22(25)24(20-11-7-4-8-12-20)21-14-17-23(18-15-21)16-13-19-9-5-3-6-10-19/h3-12,21H,2,13-18H2,1H3

>  <INCHI_KEY>
InChIKey=PJMPHNIQZUBGLI-UHFFFAOYSA-N

>  <JCHEM_ACCEPTOR_COUNT>
2

>  <JCHEM_AVERAGE_POLARIZABILITY>
40.031551

>  <JCHEM_BIOAVAILABILITY>
1

>  <JCHEM_DONOR_COUNT>
0

>  <JCHEM_EXACT_MASS>
336.22015

>  <JCHEM_FORMAL_CHARGE>
0

>  <JCHEM_FORMULA>
C22H28N2O

>  <JCHEM_GHOSE_FILTER>
1

>  <JCHEM_IUPAC>
N-phenyl-N-[1-(2-phenylethyl)piperidin-4-yl]propanamide

>  <ALOGPS_LOGP>
4.1199999

>  <JCHEM_LOGP>
3.8154986

>  <ALOGPS_LOGS>
-4.1500001

>  <JCHEM_MASS>
336.47049

>  <JCHEM_MDDR_LIKE_RULE>
1

>  <JCHEM_NUMBER_OF_RINGS>
3

>  <JCHEM_PHYSIOLOGICAL_CHARGE>
1

>  <JCHEM_PKA_STRONGEST_BASIC>
8.7676144

>  <JCHEM_POLAR_SURFACE_AREA>
23.549999

>  <JCHEM_REFRACTIVITY>
103.4825

>  <JCHEM_ROTATABLE_BOND_COUNT>
6

>  <JCHEM_RULE_OF_FIVE>
1

>  <ALOGPS_SOLUBILITY>
2.40e-02 g/l

>  <JCHEM_TRADITIONAL_IUPAC>
fentanyl

>  <JCHEM_VEBER_RULE>
1

>  <DRUGBANK_ID>
DB00813

>  <DRUG_GROUPS>
approved; illicit; investigational

>  <GENERIC_NAME>
Fentanyl

>  <SYNONYMS>
Fentanil ; Fentanilo; Fentanyl; Fentanyl; Fentanylum; Phentanyl

>  <BRANDS>
Abstral; Actiq; Duragesic; Durogesic; Fentanest; Lazanda; Nasalfent; Rapinyl; Subsys

>  <SALTS>
Fentanyl citrate

$$$$
Meloxicam
 OpenBabel02121510022D

 23 25  0  0  1  0  0  0  0  0999 V2000
   17.2940  -10.3130    0.0000 C   0  0  0  0  0  0  0  0  0  0  0  0
   17.2800  -11.1350    0.0000 C   0  0  0  0  0  0  0  0  0  0  0  0
   18.0120   -9.9110    0.0000 C   0  0  0  0  0  0  0  0  0  0  0  0
   16.5820   -9.8870    0.0000 C   0  0  0  0  0  0  0  0  0  0  0  0
   17.9840  -11.5550    0.0000 S   0  0  0  0  0  0  0  0  0  0  0  0
   16.5620  -11.5380    0.0000 C   0  0  0  0  0  0  0  0  0  0  0  0
   18.7160  -10.3340    0.0000 C   0  0  0  0  0  0  0  0  0  0  0  0
   18.0250   -9.0860    0.0000 O   0  0  0  0  0  0  0  0  0  0  0  0
   15.8650  -10.2960    0.0000 C   0  0  0  0  0  0  0  0  0  0  0  0
   18.7020  -11.1560    0.0000 N   0  0  0  0  0  0  0  0  0  0  0  0
   18.6110  -12.1410    0.0000 O   0  0  0  0  0  0  0  0  0  0  0  0
   17.2830  -12.1830    0.0000 O   0  0  0  0  0  0  0  0  0  0  0  0
   15.8540  -11.1220    0.0000 C   0  0  0  0  0  0  0  0  0  0  0  0
   19.4370   -9.9320    0.0000 C   0  0  0  0  0  0  0  0  0  0  0  0
   19.4160  -11.5790    0.0000 C   0  0  0  0  0  0  0  0  0  0  0  0
   20.1480  -10.3580    0.0000 N   0  0  0  0  0  0  0  0  0  0  0  0
   19.4510   -9.1060    0.0000 O   0  0  0  0  0  0  0  0  0  0  0  0
   20.8690   -9.9560    0.0000 C   0  0  0  0  0  0  0  0  0  0  0  0
   21.6590  -10.1870    0.0000 N   0  0  0  0  0  0  0  0  0  0  0  0
   20.8450   -9.1260    0.0000 S   0  0  0  0  0  0  0  0  0  0  0  0
   22.1260   -9.5070    0.0000 C   0  0  0  0  0  0  0  0  0  0  0  0
   21.6250   -8.8520    0.0000 C   0  0  0  0  0  0  0  0  0  0  0  0
   21.8540   -8.0570    0.0000 C   0  0  0  0  0  0  0  0  0  0  0  0
  1  2  2  0  0  0  0
  1  3  1  0  0  0  0
  1  4  1  0  0  0  0
  2  5  1  0  0  0  0
  2  6  1  0  0  0  0
  3  7  2  0  0  0  0
  3  8  1  0  0  0  0
  4  9  2  0  0  0  0
  5 10  1  0  0  0  0
  5 11  2  0  0  0  0
  5 12  2  0  0  0  0
  6 13  2  0  0  0  0
  7 10  1  0  0  0  0
  7 14  1  0  0  0  0
  9 13  1  0  0  0  0
 10 15  1  0  0  0  0
 14 16  1  0  0  0  0
 14 17  2  0  0  0  0
 16 18  1  0  0  0  0
 18 19  2  0  0  0  0
 18 20  1  0  0  0  0
 19 21  1  0  0  0  0
 20 22  1  0  0  0  0
 21 22  2  0  0  0  0
 22 23  1  0  0  0  0
M  END
>  <DATABASE_ID>
DB00814

>  <DATABASE_NAME>
drugbank

>  <SMILES>
s1c(cnc1NC(=O)C=1N(S(=O)(=O)c2c(cccc2)C=1O)C)C

>  <INCHI_IDENTIFIER>
InChI=1S/C14H13N3O4S2/c1-8-7-15-14(22-8)16-13(19)11-12(18)9-5-3-4-6-10(9)23(20,21)17(11)2/h3-7,18H,1-2H3,(H,15,16,19)

>  <INCHI_KEY>
InChIKey=ZRVUJXDFFKFLMG-UHFFFAOYSA-N

>  <JCHEM_ACCEPTOR_COUNT>
5

>  <JCHEM_AVERAGE_POLARIZABILITY>
34.253681

>  <JCHEM_BIOAVAILABILITY>
1

>  <JCHEM_DONOR_COUNT>
2

>  <JCHEM_EXACT_MASS>
351.03476

>  <JCHEM_FORMAL_CHARGE>
0

>  <JCHEM_FORMULA>
C14H13N3O4S2

>  <JCHEM_GHOSE_FILTER>
1

>  <JCHEM_IUPAC>
4-hydroxy-2-methyl-N-(5-methyl-1,3-thiazol-2-yl)-1,1-dioxo-2H-1$l^{6},2-benzothiazine-3-carboxamide

>  <ALOGPS_LOGP>
2.28

>  <JCHEM_LOGP>
1.6005814

>  <ALOGPS_LOGS>
-3.3599999

>  <JCHEM_MASS>
351.401

>  <JCHEM_MDDR_LIKE_RULE>
0

>  <JCHEM_NUMBER_OF_RINGS>
3

>  <JCHEM_PHYSIOLOGICAL_CHARGE>
-1

>  <JCHEM_PKA>
10.641769

>  <JCHEM_PKA_STRONGEST_ACIDIC>
4.4711599

>  <JCHEM_PKA_STRONGEST_BASIC>
0.47363287

>  <JCHEM_POLAR_SURFACE_AREA>
99.599998

>  <JCHEM_REFRACTIVITY>
88.624901

>  <JCHEM_ROTATABLE_BOND_COUNT>
2

>  <JCHEM_RULE_OF_FIVE>
1

>  <ALOGPS_SOLUBILITY>
1.54e-01 g/l

>  <JCHEM_TRADITIONAL_IUPAC>
meloxicam

>  <JCHEM_VEBER_RULE>
0

>  <DRUGBANK_ID>
DB00814

>  <DRUG_GROUPS>
approved

>  <GENERIC_NAME>
Meloxicam

>  <SYNONYMS>
Meloxicam; Méloxicam; Meloxicam; Meloxicamum

>  <BRANDS>
Achefree; Acticam; Aflamid; Afloxx; Aglan; Ainecox; Aldoron; Alentum; Algiflex; Aliviodol; Anaxicam; Anposel; Antrend; Aponip; Areloger; Aremil; Armex; Arrox; Arsitec; Artex; Arthrobic; Arthrox; Articam; Artipro; Artriclox; Artrifilm; Artriflam; Artrilom; Artrilox; Artrox; Aspicam; Atiflam; Atrozan; Auroxicam; Axius; Mobic

$$$$
Orciprenaline
 OpenBabel02121510022D

 15 15  0  0  1  0  0  0  0  0999 V2000
    2.3640    0.6680    0.0000 O   0  0  0  0  0  0  0  0  0  0  0  0
    1.6500   -2.2190    0.0000 O   0  0  0  0  0  0  0  0  0  0  0  0
    4.5080   -2.2190    0.0000 O   0  0  0  0  0  0  0  0  0  0  0  0
    3.7940    1.4930    0.0000 N   0  0  0  0  0  0  0  0  0  0  0  0
    3.0790    0.2560    0.0000 C   0  0  3  0  0  0  0  0  0  0  0  0
    3.7940    0.6680    0.0000 C   0  0  0  0  0  0  0  0  0  0  0  0
    4.5080    1.9060    0.0000 C   0  0  0  0  0  0  0  0  0  0  0  0
    3.0790   -0.5690    0.0000 C   0  0  0  0  0  0  0  0  0  0  0  0
    4.5080    2.7310    0.0000 C   0  0  0  0  0  0  0  0  0  0  0  0
    5.2220    1.4930    0.0000 C   0  0  0  0  0  0  0  0  0  0  0  0
    3.7940   -0.9820    0.0000 C   0  0  0  0  0  0  0  0  0  0  0  0
    2.3640   -0.9820    0.0000 C   0  0  0  0  0  0  0  0  0  0  0  0
    2.3640   -1.8070    0.0000 C   0  0  0  0  0  0  0  0  0  0  0  0
    3.7940   -1.8070    0.0000 C   0  0  0  0  0  0  0  0  0  0  0  0
    3.0790   -2.2190    0.0000 C   0  0  0  0  0  0  0  0  0  0  0  0
  1  5  1  0  0  0  0
  2 13  1  0  0  0  0
  3 14  1  0  0  0  0
  4  6  1  0  0  0  0
  4  7  1  0  0  0  0
  5  6  1  0  0  0  0
  5  8  1  0  0  0  0
  7  9  1  0  0  0  0
  7 10  1  0  0  0  0
  8 11  1  0  0  0  0
  8 12  2  0  0  0  0
 11 14  2  0  0  0  0
 12 13  1  0  0  0  0
 13 15  2  0  0  0  0
 14 15  1  0  0  0  0
M  END
>  <DATABASE_ID>
DB00816

>  <DATABASE_NAME>
drugbank

>  <SMILES>
Oc1cc(cc(O)c1)C(O)CNC(C)C

>  <INCHI_IDENTIFIER>
InChI=1S/C11H17NO3/c1-7(2)12-6-11(15)8-3-9(13)5-10(14)4-8/h3-5,7,11-15H,6H2,1-2H3

>  <INCHI_KEY>
InChIKey=LMOINURANNBYCM-UHFFFAOYSA-N

>  <JCHEM_ACCEPTOR_COUNT>
4

>  <JCHEM_AVERAGE_POLARIZABILITY>
23.117285

>  <JCHEM_BIOAVAILABILITY>
1

>  <JCHEM_DONOR_COUNT>
4

>  <JCHEM_EXACT_MASS>
211.12085

>  <JCHEM_FORMAL_CHARGE>
0

>  <JCHEM_FORMULA>
C11H17NO3

>  <JCHEM_GHOSE_FILTER>
1

>  <JCHEM_IUPAC>
5-{1-hydroxy-2-[(propan-2-yl)amino]ethyl}benzene-1,3-diol

>  <ALOGPS_LOGP>
-0.31999999

>  <JCHEM_LOGP>
0.21496195

>  <ALOGPS_LOGS>
-1.48

>  <JCHEM_MASS>
211.2576

>  <JCHEM_MDDR_LIKE_RULE>
0

>  <JCHEM_NUMBER_OF_RINGS>
1

>  <JCHEM_PHYSIOLOGICAL_CHARGE>
1

>  <JCHEM_PKA>
10.627071

>  <JCHEM_PKA_STRONGEST_ACIDIC>
8.8411093

>  <JCHEM_PKA_STRONGEST_BASIC>
9.6974726

>  <JCHEM_POLAR_SURFACE_AREA>
72.720001

>  <JCHEM_REFRACTIVITY>
58.397701

>  <JCHEM_ROTATABLE_BOND_COUNT>
4

>  <JCHEM_RULE_OF_FIVE>
1

>  <ALOGPS_SOLUBILITY>
6.92e+00 g/l

>  <JCHEM_TRADITIONAL_IUPAC>
metaproterenol

>  <JCHEM_VEBER_RULE>
0

>  <DRUGBANK_ID>
DB00816

>  <DRUG_GROUPS>
approved

>  <GENERIC_NAME>
Orciprenaline

>  <SYNONYMS>
Metaproterenol; Orciprenalina; Orciprenalinum

>  <BRANDS>
Alupent; Metaprel

>  <SALTS>
Orciprenaline Sulfate

$$$$
Acetazolamide
 OpenBabel02121510022D

 13 13  0  0  0  0  0  0  0  0999 V2000
    5.9520   -0.2870    0.0000 S   0  0  0  0  0  0  0  0  0  0  0  0
    4.5000   -0.5170    0.0000 S   0  0  0  0  0  0  0  0  0  0  0  0
    5.6970   -1.0720    0.0000 O   0  0  0  0  0  0  0  0  0  0  0  0
    6.2070    0.4970    0.0000 O   0  0  0  0  0  0  0  0  0  0  0  0
    2.6060    1.0720    0.0000 O   0  0  0  0  0  0  0  0  0  0  0  0
    3.0480   -0.2870    0.0000 N   0  0  0  0  0  0  0  0  0  0  0  0
    4.9120    0.7520    0.0000 N   0  0  0  0  0  0  0  0  0  0  0  0
    6.7360   -0.5420    0.0000 N   0  0  0  0  0  0  0  0  0  0  0  0
    4.0870    0.7520    0.0000 N   0  0  0  0  0  0  0  0  0  0  0  0
    5.1670   -0.0320    0.0000 C   0  0  0  0  0  0  0  0  0  0  0  0
    3.8320   -0.0320    0.0000 C   0  0  0  0  0  0  0  0  0  0  0  0
    2.4350    0.2650    0.0000 C   0  0  0  0  0  0  0  0  0  0  0  0
    1.6500    0.0100    0.0000 C   0  0  0  0  0  0  0  0  0  0  0  0
  1  3  2  0  0  0  0
  1  4  2  0  0  0  0
  1  8  1  0  0  0  0
  1 10  1  0  0  0  0
  2 10  1  0  0  0  0
  2 11  1  0  0  0  0
  5 12  2  0  0  0  0
  6 11  1  0  0  0  0
  6 12  1  0  0  0  0
  7  9  1  0  0  0  0
  7 10  2  0  0  0  0
  9 11  2  0  0  0  0
 12 13  1  0  0  0  0
M  END
>  <DATABASE_ID>
DB00819

>  <DATABASE_NAME>
drugbank

>  <SMILES>
s1c(nnc1S(=O)(=O)N)NC(=O)C

>  <INCHI_IDENTIFIER>
InChI=1S/C4H6N4O3S2/c1-2(9)6-3-7-8-4(12-3)13(5,10)11/h1H3,(H2,5,10,11)(H,6,7,9)

>  <INCHI_KEY>
InChIKey=BZKPWHYZMXOIDC-UHFFFAOYSA-N

>  <JCHEM_ACCEPTOR_COUNT>
5

>  <JCHEM_AVERAGE_POLARIZABILITY>
19.162422

>  <JCHEM_BIOAVAILABILITY>
1

>  <JCHEM_DONOR_COUNT>
2

>  <JCHEM_EXACT_MASS>
221.98813

>  <JCHEM_FORMAL_CHARGE>
0

>  <JCHEM_FORMULA>
C4H6N4O3S2

>  <JCHEM_GHOSE_FILTER>
0

>  <JCHEM_IUPAC>
N-(5-sulfamoyl-1,3,4-thiadiazol-2-yl)acetamide

>  <ALOGPS_LOGP>
-0.38999999

>  <JCHEM_LOGP>
-1.039467

>  <ALOGPS_LOGS>
-1.9

>  <JCHEM_MASS>
222.245

>  <JCHEM_MDDR_LIKE_RULE>
0

>  <JCHEM_NUMBER_OF_RINGS>
1

>  <JCHEM_PHYSIOLOGICAL_CHARGE>
-1

>  <JCHEM_PKA>
10.353838

>  <JCHEM_PKA_STRONGEST_ACIDIC>
6.9279256

>  <JCHEM_PKA_STRONGEST_BASIC>
-3.321661

>  <JCHEM_POLAR_SURFACE_AREA>
115.04

>  <JCHEM_REFRACTIVITY>
47.356701

>  <JCHEM_ROTATABLE_BOND_COUNT>
2

>  <JCHEM_RULE_OF_FIVE>
1

>  <ALOGPS_SOLUBILITY>
2.79e+00 g/l

>  <JCHEM_TRADITIONAL_IUPAC>
acetazolamide

>  <JCHEM_VEBER_RULE>
0

>  <DRUGBANK_ID>
DB00819

>  <DRUG_GROUPS>
approved

>  <GENERIC_NAME>
Acetazolamide

>  <SYNONYMS>
Acetazolamid; Acetazolamida ; Acétazolamide; Acetazolamidum

>  <BRANDS>
Acemit; Acemox; Acetak; Acetamide; Acetazolamax; Avva; Azm; Azol; Azomid; Carbinib; Défiltran; Defiltran; Diabo; Diacarb; Diamox; Diamox Depot; Diamox Sequels; Diazomid; Diluran; Diuramid; Edemox; Glaumox; Glaupax; Glupax; Huma-Zolamide; Iopar-SR; Medene; Oculten; Ödemin; Uramox; Zolmide

>  <SALTS>
Acetazolamide Sodium

$$$$
Tadalafil
 OpenBabel02121510022D

 30 35  0  0  1  0  0  0  0  0999 V2000
    7.2910    0.5260    0.0000 O   0  0  0  0  0  0  0  0  0  0  0  0
    4.3840    2.2050    0.0000 O   0  0  0  0  0  0  0  0  0  0  0  0
    2.8000    2.9800    0.0000 O   0  0  0  0  0  0  0  0  0  0  0  0
    1.6500    2.3170    0.0000 O   0  0  0  0  0  0  0  0  0  0  0  0
    5.1160    0.9410    0.0000 N   0  0  0  0  0  0  0  0  0  0  0  0
    3.7930   -0.8470    0.0000 N   0  0  0  0  0  0  0  0  0  0  0  0
    6.5880    1.8060    0.0000 N   0  0  0  0  0  0  0  0  0  0  0  0
    5.8300    0.5290    0.0000 C   0  0  2  0  0  0  0  0  0  0  0  0
    4.4020    0.5290    0.0000 C   0  0  1  0  0  0  0  0  0  0  0  0
    5.8300   -0.2960    0.0000 C   0  0  0  0  0  0  0  0  0  0  0  0
    4.4020   -0.2960    0.0000 C   0  0  0  0  0  0  0  0  0  0  0  0
    5.1160   -0.7090    0.0000 C   0  0  0  0  0  0  0  0  0  0  0  0
    6.5810    0.9470    0.0000 C   0  0  0  0  0  0  0  0  0  0  0  0
    4.9430   -1.5100    0.0000 C   0  0  0  0  0  0  0  0  0  0  0  0
    5.1030    1.8000    0.0000 C   0  0  0  0  0  0  0  0  0  0  0  0
    3.6870    0.9410    0.0000 C   0  0  0  0  0  0  0  0  0  0  0  0
    5.8440    2.2360    0.0000 C   0  0  0  0  0  0  0  0  0  0  0  0
    4.1280   -1.5960    0.0000 C   0  0  0  0  0  0  0  0  0  0  0  0
    5.4560   -2.1940    0.0000 C   0  0  0  0  0  0  0  0  0  0  0  0
    3.6870    1.7660    0.0000 C   0  0  0  0  0  0  0  0  0  0  0  0
    2.9720    0.5290    0.0000 C   0  0  0  0  0  0  0  0  0  0  0  0
    3.7680   -2.3700    0.0000 C   0  0  0  0  0  0  0  0  0  0  0  0
    7.3040    2.2160    0.0000 C   0  0  0  0  0  0  0  0  0  0  0  0
    2.9720    2.1790    0.0000 C   0  0  0  0  0  0  0  0  0  0  0  0
    5.1130   -2.9770    0.0000 C   0  0  0  0  0  0  0  0  0  0  0  0
    2.2580    0.9410    0.0000 C   0  0  0  0  0  0  0  0  0  0  0  0
    4.2640   -3.0660    0.0000 C   0  0  0  0  0  0  0  0  0  0  0  0
    2.2580    1.7660    0.0000 C   0  0  0  0  0  0  0  0  0  0  0  0
    1.9840    3.0660    0.0000 C   0  0  0  0  0  0  0  0  0  0  0  0
    6.3990    0.1940    0.0000 H   0  0  0  0  0  0  0  0  0  0  0  0
  1 13  2  0  0  0  0
  2 15  2  0  0  0  0
  3 24  1  0  0  0  0
  3 29  1  0  0  0  0
  4 28  1  0  0  0  0
  4 29  1  0  0  0  0
  5  8  1  0  0  0  0
  5  9  1  0  0  0  0
  5 15  1  0  0  0  0
  6 11  1  0  0  0  0
  6 18  1  0  0  0  0
  7 13  1  0  0  0  0
  7 17  1  0  0  0  0
  7 23  1  0  0  0  0
  8 10  1  0  0  0  0
  8 13  1  0  0  0  0
  8 30  1  6  0  0  0
  9 11  1  0  0  0  0
  9 16  1  1  0  0  0
 10 12  1  0  0  0  0
 11 12  2  0  0  0  0
 12 14  1  0  0  0  0
 14 18  1  0  0  0  0
 14 19  2  0  0  0  0
 15 17  1  0  0  0  0
 16 20  2  0  0  0  0
 16 21  1  0  0  0  0
 18 22  2  0  0  0  0
 19 25  1  0  0  0  0
 20 24  1  0  0  0  0
 21 26  2  0  0  0  0
 22 27  1  0  0  0  0
 24 28  2  0  0  0  0
 25 27  2  0  0  0  0
 26 28  1  0  0  0  0
M  END
>  <DATABASE_ID>
DB00820

>  <DATABASE_NAME>
drugbank

>  <SMILES>
O1c2cc(ccc2OC1)[C@H]1N2[C@H](Cc3c1[nH]c1c3cccc1)C(=O)N(CC2=O)C

>  <INCHI_IDENTIFIER>
InChI=1S/C22H19N3O4/c1-24-10-19(26)25-16(22(24)27)9-14-13-4-2-3-5-15(13)23-20(14)21(25)12-6-7-17-18(8-12)29-11-28-17/h2-8,16,21,23H,9-11H2,1H3/t16-,21-/m1/s1

>  <INCHI_KEY>
InChIKey=WOXKDUGGOYFFRN-IIBYNOLFSA-N

>  <JCHEM_ACCEPTOR_COUNT>
4

>  <JCHEM_AVERAGE_POLARIZABILITY>
40.921936

>  <JCHEM_BIOAVAILABILITY>
1

>  <JCHEM_DONOR_COUNT>
1

>  <JCHEM_EXACT_MASS>
389.13754

>  <JCHEM_FORMAL_CHARGE>
0

>  <JCHEM_FORMULA>
C22H19N3O4

>  <JCHEM_GHOSE_FILTER>
1

>  <JCHEM_IUPAC>
(2R,8R)-2-(2H-1,3-benzodioxol-5-yl)-6-methyl-3,6,17-triazatetracyclo[8.7.0.0^{3,8}.0^{11,16}]heptadeca-1(10),11,13,15-tetraene-4,7-dione

>  <ALOGPS_LOGP>
2.3599999

>  <JCHEM_LOGP>
1.6393403

>  <ALOGPS_LOGS>
-3.1900001

>  <JCHEM_MASS>
389.40399

>  <JCHEM_MDDR_LIKE_RULE>
0

>  <JCHEM_NUMBER_OF_RINGS>
6

>  <JCHEM_PHYSIOLOGICAL_CHARGE>
0

>  <JCHEM_PKA>
18.739944

>  <JCHEM_PKA_STRONGEST_ACIDIC>
15.16992

>  <JCHEM_PKA_STRONGEST_BASIC>
-4.2334776

>  <JCHEM_POLAR_SURFACE_AREA>
74.870003

>  <JCHEM_REFRACTIVITY>
104.0816

>  <JCHEM_ROTATABLE_BOND_COUNT>
1

>  <JCHEM_RULE_OF_FIVE>
1

>  <ALOGPS_SOLUBILITY>
2.50e-01 g/l

>  <JCHEM_TRADITIONAL_IUPAC>
tadalafil

>  <JCHEM_VEBER_RULE>
0

>  <DRUGBANK_ID>
DB00820

>  <DRUG_GROUPS>
approved; investigational

>  <GENERIC_NAME>
Tadalafil

>  <BRANDS>
ADCIRCA; Cialis

$$$$
Carprofen
 OpenBabel02121510022D

 19 21  0  0  1  0  0  0  0  0999 V2000
    1.5840   -1.3780    0.0000 Cl  0  0  0  0  0  0  0  0  0  0  0  0
    7.9410   -0.2540    0.0000 O   0  0  0  0  0  0  0  0  0  0  0  0
    6.9250   -1.1760    0.0000 O   0  0  0  0  0  0  0  0  0  0  0  0
    3.8590    0.8870    0.0000 N   0  0  0  0  0  0  0  0  0  0  0  0
    4.2550   -0.3320    0.0000 C   0  0  0  0  0  0  0  0  0  0  0  0
    4.5000    0.4220    0.0000 C   0  0  0  0  0  0  0  0  0  0  0  0
    3.4630   -0.3320    0.0000 C   0  0  0  0  0  0  0  0  0  0  0  0
    5.8610   -0.0030    0.0000 C   0  0  0  0  0  0  0  0  0  0  0  0
    3.2180    0.4220    0.0000 C   0  0  0  0  0  0  0  0  0  0  0  0
    6.6350    0.1650    0.0000 C   0  0  3  0  0  0  0  0  0  0  0  0
    5.3040    0.6060    0.0000 C   0  0  0  0  0  0  0  0  0  0  0  0
    4.7970   -0.9530    0.0000 C   0  0  0  0  0  0  0  0  0  0  0  0
    5.6060   -0.7880    0.0000 C   0  0  0  0  0  0  0  0  0  0  0  0
    2.9200   -0.9530    0.0000 C   0  0  0  0  0  0  0  0  0  0  0  0
    2.4140    0.6060    0.0000 C   0  0  0  0  0  0  0  0  0  0  0  0
    6.8770    0.9190    0.0000 C   0  0  0  0  0  0  0  0  0  0  0  0
    2.1120   -0.7880    0.0000 C   0  0  0  0  0  0  0  0  0  0  0  0
    7.1670   -0.4220    0.0000 C   0  0  0  0  0  0  0  0  0  0  0  0
    1.8570   -0.0030    0.0000 C   0  0  0  0  0  0  0  0  0  0  0  0
  1 17  1  0  0  0  0
  2 18  1  0  0  0  0
  3 18  2  0  0  0  0
  4  6  1  0  0  0  0
  4  9  1  0  0  0  0
  5  6  1  0  0  0  0
  5  7  1  0  0  0  0
  5 12  2  0  0  0  0
  6 11  2  0  0  0  0
  7  9  2  0  0  0  0
  7 14  1  0  0  0  0
  8 10  1  0  0  0  0
  8 11  1  0  0  0  0
  8 13  2  0  0  0  0
  9 15  1  0  0  0  0
 10 16  1  0  0  0  0
 10 18  1  0  0  0  0
 12 13  1  0  0  0  0
 14 17  2  0  0  0  0
 15 19  2  0  0  0  0
 17 19  1  0  0  0  0
M  END
>  <DATABASE_ID>
DB00821

>  <DATABASE_NAME>
drugbank

>  <SMILES>
Clc1cc2c3c([nH]c2cc1)cc(cc3)C(C(O)=O)C

>  <INCHI_IDENTIFIER>
InChI=1S/C15H12ClNO2/c1-8(15(18)19)9-2-4-11-12-7-10(16)3-5-13(12)17-14(11)6-9/h2-8,17H,1H3,(H,18,19)

>  <INCHI_KEY>
InChIKey=PUXBGTOOZJQSKH-UHFFFAOYSA-N

>  <JCHEM_ACCEPTOR_COUNT>
2

>  <JCHEM_AVERAGE_POLARIZABILITY>
28.558252

>  <JCHEM_BIOAVAILABILITY>
1

>  <JCHEM_DONOR_COUNT>
2

>  <JCHEM_EXACT_MASS>
273.05566

>  <JCHEM_FORMAL_CHARGE>
0

>  <JCHEM_FORMULA>
C15H12ClNO2

>  <JCHEM_GHOSE_FILTER>
1

>  <JCHEM_IUPAC>
2-(6-chloro-9H-carbazol-2-yl)propanoic acid

>  <ALOGPS_LOGP>
4.0900002

>  <JCHEM_LOGP>
3.8756649

>  <ALOGPS_LOGS>
-4.8600001

>  <JCHEM_MASS>
273.71399

>  <JCHEM_MDDR_LIKE_RULE>
0

>  <JCHEM_NUMBER_OF_RINGS>
3

>  <JCHEM_PHYSIOLOGICAL_CHARGE>
-1

>  <JCHEM_PKA>
14.804258

>  <JCHEM_PKA_STRONGEST_ACIDIC>
4.4157977

>  <JCHEM_POLAR_SURFACE_AREA>
53.09

>  <JCHEM_REFRACTIVITY>
74.159103

>  <JCHEM_ROTATABLE_BOND_COUNT>
2

>  <JCHEM_RULE_OF_FIVE>
1

>  <ALOGPS_SOLUBILITY>
3.79e-03 g/l

>  <JCHEM_TRADITIONAL_IUPAC>
carprofen

>  <JCHEM_VEBER_RULE>
0

>  <DRUGBANK_ID>
DB00821

>  <DRUG_GROUPS>
approved; withdrawn

>  <GENERIC_NAME>
Carprofen

>  <SYNONYMS>
Carprofen; Carprofène; Carprofeno; Carprofenum

>  <BRANDS>
lmadyl; lmafen; Rimadyt

$$$$
Disulfiram
 OpenBabel02121510022D

 16 15  0  0  0  0  0  0  0  0999 V2000
    5.2220    0.2060    0.0000 S   0  0  0  0  0  0  0  0  0  0  0  0
    4.5080   -0.2060    0.0000 S   0  0  0  0  0  0  0  0  0  0  0  0
    5.9360   -1.0310    0.0000 S   0  0  0  0  0  0  0  0  0  0  0  0
    3.7930    1.0310    0.0000 S   0  0  0  0  0  0  0  0  0  0  0  0
    6.6510    0.2060    0.0000 N   0  0  0  0  0  0  0  0  0  0  0  0
    3.0790   -0.2060    0.0000 N   0  0  0  0  0  0  0  0  0  0  0  0
    6.6510    1.0310    0.0000 C   0  0  0  0  0  0  0  0  0  0  0  0
    7.3650   -0.2060    0.0000 C   0  0  0  0  0  0  0  0  0  0  0  0
    3.0790   -1.0310    0.0000 C   0  0  0  0  0  0  0  0  0  0  0  0
    2.3640    0.2060    0.0000 C   0  0  0  0  0  0  0  0  0  0  0  0
    7.3650    1.4440    0.0000 C   0  0  0  0  0  0  0  0  0  0  0  0
    8.0800    0.2060    0.0000 C   0  0  0  0  0  0  0  0  0  0  0  0
    2.3640   -1.4440    0.0000 C   0  0  0  0  0  0  0  0  0  0  0  0
    1.6500   -0.2060    0.0000 C   0  0  0  0  0  0  0  0  0  0  0  0
    5.9360   -0.2060    0.0000 C   0  0  0  0  0  0  0  0  0  0  0  0
    3.7930    0.2060    0.0000 C   0  0  0  0  0  0  0  0  0  0  0  0
  1  2  1  0  0  0  0
  1 15  1  0  0  0  0
  2 16  1  0  0  0  0
  3 15  2  0  0  0  0
  4 16  2  0  0  0  0
  5  7  1  0  0  0  0
  5  8  1  0  0  0  0
  5 15  1  0  0  0  0
  6  9  1  0  0  0  0
  6 10  1  0  0  0  0
  6 16  1  0  0  0  0
  7 11  1  0  0  0  0
  8 12  1  0  0  0  0
  9 13  1  0  0  0  0
 10 14  1  0  0  0  0
M  END
>  <DATABASE_ID>
DB00822

>  <DATABASE_NAME>
drugbank

>  <SMILES>
S(SC(=S)N(CC)CC)C(=S)N(CC)CC

>  <INCHI_IDENTIFIER>
InChI=1S/C10H20N2S4/c1-5-11(6-2)9(13)15-16-10(14)12(7-3)8-4/h5-8H2,1-4H3

>  <INCHI_KEY>
InChIKey=AUZONCFQVSMFAP-UHFFFAOYSA-N

>  <JCHEM_ACCEPTOR_COUNT>
0

>  <JCHEM_AVERAGE_POLARIZABILITY>
31.59886

>  <JCHEM_BIOAVAILABILITY>
1

>  <JCHEM_DONOR_COUNT>
0

>  <JCHEM_EXACT_MASS>
296.05093

>  <JCHEM_FORMAL_CHARGE>
0

>  <JCHEM_FORMULA>
C10H20N2S4

>  <JCHEM_GHOSE_FILTER>
1

>  <JCHEM_IUPAC>
N,N-diethyl[(diethylcarbamothioyl)disulfanyl]carbothioamide

>  <ALOGPS_LOGP>
3.8800001

>  <JCHEM_LOGP>
4.159759

>  <ALOGPS_LOGS>
-4.3699999

>  <JCHEM_MASS>
296.539

>  <JCHEM_MDDR_LIKE_RULE>
0

>  <JCHEM_NUMBER_OF_RINGS>
0

>  <JCHEM_PHYSIOLOGICAL_CHARGE>
0

>  <JCHEM_POLAR_SURFACE_AREA>
6.48

>  <JCHEM_REFRACTIVITY>
88.235199

>  <JCHEM_ROTATABLE_BOND_COUNT>
7

>  <JCHEM_RULE_OF_FIVE>
1

>  <ALOGPS_SOLUBILITY>
1.26e-02 g/l

>  <JCHEM_TRADITIONAL_IUPAC>
N,N-diethyl(diethylcarbamothioyl)disulfanylcarbothioamide

>  <JCHEM_VEBER_RULE>
1

>  <DRUGBANK_ID>
DB00822

>  <DRUG_GROUPS>
approved

>  <GENERIC_NAME>
Disulfiram

>  <SYNONYMS>
1,1'-dithiobis(N,N-diethylthioformamide); N,N,N',N'-tetraethylthiuram disulfide; Tetraethylthioperoxydicarbonic Diamide; Tetraethylthiuram Disulfide; Tetraethylthiuram Disulphide

>  <BRANDS>
Antabus; Antabuse; Antaethyl; Antalcol; Anticol; Antietanol; Chronol; Esperal

$$$$
Ethynodiol
 OpenBabel02121510022D

 32 35  0  0  1  0  0  0  0  0999 V2000
    8.9770    0.8590    0.0000 O   0  0  0  0  0  0  0  0  0  0  0  0
    3.0790   -2.3940    0.0000 O   0  0  0  0  0  0  0  0  0  0  0  0
    9.8150   -0.2980    0.0000 O   0  0  0  0  0  0  0  0  0  0  0  0
    2.3690   -1.1540    0.0000 O   0  0  0  0  0  0  0  0  0  0  0  0
    7.5280    0.1240    0.0000 C   0  0  1  0  0  0  0  0  0  0  0  0
    7.5280   -0.7010    0.0000 C   0  0  2  0  0  0  0  0  0  0  0  0
    6.8140   -1.1140    0.0000 C   0  0  1  0  0  0  0  0  0  0  0  0
    6.0990   -0.7010    0.0000 C   0  0  2  0  0  0  0  0  0  0  0  0
    8.3090    0.3750    0.0000 C   0  0  2  0  0  0  0  0  0  0  0  0
    6.8140    0.5360    0.0000 C   0  0  0  0  0  0  0  0  0  0  0  0
    8.3090   -0.9530    0.0000 C   0  0  0  0  0  0  0  0  0  0  0  0
    6.0990    0.1240    0.0000 C   0  0  0  0  0  0  0  0  0  0  0  0
    5.3490   -1.1190    0.0000 C   0  0  2  0  0  0  0  0  0  0  0  0
    8.7910   -0.2890    0.0000 C   0  0  0  0  0  0  0  0  0  0  0  0
    6.8270   -1.9730    0.0000 C   0  0  0  0  0  0  0  0  0  0  0  0
    7.5280    0.9490    0.0000 C   0  0  0  0  0  0  0  0  0  0  0  0
    5.3420   -1.9790    0.0000 C   0  0  0  0  0  0  0  0  0  0  0  0
    6.0860   -2.4080    0.0000 C   0  0  0  0  0  0  0  0  0  0  0  0
    4.5840   -0.6540    0.0000 C   0  0  0  0  0  0  0  0  0  0  0  0
    3.8020   -1.0900    0.0000 C   0  0  0  0  0  0  0  0  0  0  0  0
    8.0560    1.1600    0.0000 C   0  0  0  0  0  0  0  0  0  0  0  0
    4.5700   -2.4320    0.0000 C   0  0  0  0  0  0  0  0  0  0  0  0
    3.7950   -1.9850    0.0000 C   0  0  1  0  0  0  0  0  0  0  0  0
    9.7300    0.5220    0.0000 C   0  0  0  0  0  0  0  0  0  0  0  0
    7.8020    1.9450    0.0000 C   0  0  0  0  0  0  0  0  0  0  0  0
   10.3990    1.0060    0.0000 C   0  0  0  0  0  0  0  0  0  0  0  0
    2.3660   -1.9790    0.0000 C   0  0  0  0  0  0  0  0  0  0  0  0
    1.6500   -2.3890    0.0000 C   0  0  0  0  0  0  0  0  0  0  0  0
    7.5980   -1.3580    0.0000 H   0  0  0  0  0  0  0  0  0  0  0  0
    7.3880   -1.4390    0.0000 H   0  0  0  0  0  0  0  0  0  0  0  0
    6.6710   -0.3710    0.0000 H   0  0  0  0  0  0  0  0  0  0  0  0
    5.3610   -0.4600    0.0000 H   0  0  0  0  0  0  0  0  0  0  0  0
  1 24  1  0  0  0  0
  2 27  1  0  0  0  0
  3 24  2  0  0  0  0
  4 27  2  0  0  0  0
  5  6  1  0  0  0  0
  5  9  1  0  0  0  0
  5 10  1  0  0  0  0
  5 16  1  1  0  0  0
  6  7  1  0  0  0  0
  6 11  1  0  0  0  0
  6 29  1  6  0  0  0
  7  8  1  0  0  0  0
  7 15  1  0  0  0  0
  7 30  1  1  0  0  0
  8 12  1  0  0  0  0
  8 13  1  0  0  0  0
  8 31  1  6  0  0  0
  9  1  1  1  0  0  0
  9 14  1  0  0  0  0
  9 21  1  0  0  0  0
 10 12  1  0  0  0  0
 11 14  1  0  0  0  0
 13 17  1  0  0  0  0
 13 19  1  0  0  0  0
 13 32  1  1  0  0  0
 15 18  1  0  0  0  0
 17 18  1  0  0  0  0
 17 22  2  0  0  0  0
 19 20  1  0  0  0  0
 20 23  1  0  0  0  0
 21 25  3  0  0  0  0
 22 23  1  0  0  0  0
 23  2  1  1  0  0  0
 24 26  1  0  0  0  0
 27 28  1  0  0  0  0
M  END
>  <DATABASE_ID>
DB00823

>  <DATABASE_NAME>
drugbank

>  <SMILES>
O(C(=O)C)[C@]1(CC[C@H]2[C@H]3[C@@H]([C@@H]4C(=C[C@@H](OC(=O)C)CC4)CC3)CC[C@]12C)C#C

>  <INCHI_IDENTIFIER>
InChI=1S/C24H32O4/c1-5-24(28-16(3)26)13-11-22-21-8-6-17-14-18(27-15(2)25)7-9-19(17)20(21)10-12-23(22,24)4/h1,14,18-22H,6-13H2,2-4H3/t18-,19-,20+,21+,22-,23-,24-/m0/s1

>  <INCHI_KEY>
InChIKey=ONKUMRGIYFNPJW-KIEAKMPYSA-N

>  <JCHEM_ACCEPTOR_COUNT>
2

>  <JCHEM_AVERAGE_POLARIZABILITY>
44.109318

>  <JCHEM_BIOAVAILABILITY>
1

>  <JCHEM_DONOR_COUNT>
0

>  <JCHEM_EXACT_MASS>
384.23007

>  <JCHEM_FORMAL_CHARGE>
0

>  <JCHEM_FORMULA>
C24H32O4

>  <JCHEM_GHOSE_FILTER>
1

>  <JCHEM_IUPAC>
(1S,2R,5S,10R,11S,14R,15S)-5-(acetyloxy)-14-ethynyl-15-methyltetracyclo[8.7.0.0^{2,7}.0^{11,15}]heptadec-6-en-14-yl acetate

>  <ALOGPS_LOGP>
3.99

>  <JCHEM_LOGP>
3.6881402

>  <ALOGPS_LOGS>
-4.9899998

>  <JCHEM_MASS>
384.50851

>  <JCHEM_MDDR_LIKE_RULE>
0

>  <JCHEM_NUMBER_OF_RINGS>
4

>  <JCHEM_PHYSIOLOGICAL_CHARGE>
0

>  <JCHEM_PKA_STRONGEST_BASIC>
-6.728313

>  <JCHEM_POLAR_SURFACE_AREA>
52.599998

>  <JCHEM_REFRACTIVITY>
106.6249

>  <JCHEM_ROTATABLE_BOND_COUNT>
4

>  <JCHEM_RULE_OF_FIVE>
1

>  <ALOGPS_SOLUBILITY>
3.97e-03 g/l

>  <JCHEM_TRADITIONAL_IUPAC>
ethynodiol diacetate

>  <JCHEM_VEBER_RULE>
0

>  <DRUGBANK_ID>
DB00823

>  <DRUG_GROUPS>
approved

>  <GENERIC_NAME>
Ethynodiol

>  <SYNONYMS>
Etinodiol; Étynodiol ; Etynodiol; Etynodiolum

>  <BRANDS>
Conova; Continuin; Dernulen; Femulen; Luteonorm; Luto-Metrodiol; Metrodiol

>  <SALTS>
Ethinodiol Diacetate; Metrodiol Diacetate

$$$$
Menthol
 OpenBabel02121510022D

 11 11  0  0  1  0  0  0  0  0999 V2000
    2.0930    0.6190    0.0000 O   0  0  0  0  0  0  0  0  0  0  0  0
    3.5220    0.6190    0.0000 C   0  0  1  0  0  0  0  0  0  0  0  0
    2.8080    0.2060    0.0000 C   0  0  1  0  0  0  0  0  0  0  0  0
    4.2360    0.2060    0.0000 C   0  0  0  0  0  0  0  0  0  0  0  0
    3.5220   -1.0310    0.0000 C   0  0  1  0  0  0  0  0  0  0  0  0
    2.8080   -0.6190    0.0000 C   0  0  0  0  0  0  0  0  0  0  0  0
    4.2360   -0.6190    0.0000 C   0  0  0  0  0  0  0  0  0  0  0  0
    3.5220    1.4440    0.0000 C   0  0  0  0  0  0  0  0  0  0  0  0
    3.5220   -1.8560    0.0000 C   0  0  0  0  0  0  0  0  0  0  0  0
    4.2360    1.8560    0.0000 C   0  0  0  0  0  0  0  0  0  0  0  0
    2.8080    1.8560    0.0000 C   0  0  0  0  0  0  0  0  0  0  0  0
  2  3  1  0  0  0  0
  2  4  1  0  0  0  0
  2  8  1  6  0  0  0
  3  1  1  1  0  0  0
  3  6  1  0  0  0  0
  4  7  1  0  0  0  0
  5  6  1  0  0  0  0
  5  7  1  0  0  0  0
  5  9  1  1  0  0  0
  8 10  1  0  0  0  0
  8 11  1  0  0  0  0
M  END
>  <DATABASE_ID>
DB00825

>  <DATABASE_NAME>
drugbank

>  <SMILES>
O[C@@H]1C[C@@H](CC[C@H]1C(C)C)C

>  <INCHI_IDENTIFIER>
InChI=1S/C10H20O/c1-7(2)9-5-4-8(3)6-10(9)11/h7-11H,4-6H2,1-3H3/t8-,9+,10-/m1/s1

>  <INCHI_KEY>
InChIKey=NOOLISFMXDJSKH-KXUCPTDWSA-N

>  <JCHEM_ACCEPTOR_COUNT>
1

>  <JCHEM_AVERAGE_POLARIZABILITY>
19.690126

>  <JCHEM_BIOAVAILABILITY>
1

>  <JCHEM_DONOR_COUNT>
1

>  <JCHEM_EXACT_MASS>
156.15141

>  <JCHEM_FORMAL_CHARGE>
0

>  <JCHEM_FORMULA>
C10H20O

>  <JCHEM_GHOSE_FILTER>
0

>  <JCHEM_IUPAC>
(1R,2S,5R)-5-methyl-2-(propan-2-yl)cyclohexan-1-ol

>  <ALOGPS_LOGP>
2.6800001

>  <JCHEM_LOGP>
2.6642733

>  <ALOGPS_LOGS>
-2.45

>  <JCHEM_MASS>
156.2652

>  <JCHEM_MDDR_LIKE_RULE>
0

>  <JCHEM_NUMBER_OF_RINGS>
1

>  <JCHEM_PHYSIOLOGICAL_CHARGE>
0

>  <JCHEM_PKA_STRONGEST_ACIDIC>
19.549648

>  <JCHEM_PKA_STRONGEST_BASIC>
-0.80878425

>  <JCHEM_POLAR_SURFACE_AREA>
20.23

>  <JCHEM_REFRACTIVITY>
47.445301

>  <JCHEM_ROTATABLE_BOND_COUNT>
1

>  <JCHEM_RULE_OF_FIVE>
1

>  <ALOGPS_SOLUBILITY>
5.58e-01 g/l

>  <JCHEM_TRADITIONAL_IUPAC>
menthol

>  <JCHEM_VEBER_RULE>
1

>  <DRUGBANK_ID>
DB00825

>  <DRUG_GROUPS>
approved

>  <GENERIC_NAME>
Menthol

>  <SYNONYMS>
Levomenthol

$$$$
Cinoxacin
 OpenBabel02121510022D

 19 21  0  0  1  0  0  0  0  0999 V2000
    7.2160   -0.4540    0.0000 O   0  0  0  0  0  0  0  0  0  0  0  0
    7.2160    0.8740    0.0000 O   0  0  0  0  0  0  0  0  0  0  0  0
    4.2780    1.8890    0.0000 O   0  0  0  0  0  0  0  0  0  0  0  0
    2.0920    0.6460    0.0000 O   0  0  0  0  0  0  0  0  0  0  0  0
    2.8110    1.8800    0.0000 O   0  0  0  0  0  0  0  0  0  0  0  0
    4.2680   -0.6430    0.0000 N   0  0  0  0  0  0  0  0  0  0  0  0
    3.5210   -0.2190    0.0000 N   0  0  0  0  0  0  0  0  0  0  0  0
    5.0060   -0.2020    0.0000 C   0  0  0  0  0  0  0  0  0  0  0  0
    5.0060    0.6230    0.0000 C   0  0  0  0  0  0  0  0  0  0  0  0
    6.4350   -0.2020    0.0000 C   0  0  0  0  0  0  0  0  0  0  0  0
    5.7200   -0.6150    0.0000 C   0  0  0  0  0  0  0  0  0  0  0  0
    6.4350    0.6230    0.0000 C   0  0  0  0  0  0  0  0  0  0  0  0
    5.7200    1.0350    0.0000 C   0  0  0  0  0  0  0  0  0  0  0  0
    4.2780   -1.4680    0.0000 C   0  0  0  0  0  0  0  0  0  0  0  0
    4.2680    1.0640    0.0000 C   0  0  0  0  0  0  0  0  0  0  0  0
    3.5210    0.6400    0.0000 C   0  0  0  0  0  0  0  0  0  0  0  0
    7.6970    0.2100    0.0000 C   0  0  0  0  0  0  0  0  0  0  0  0
    3.5680   -1.8890    0.0000 C   0  0  0  0  0  0  0  0  0  0  0  0
    2.8080    1.0550    0.0000 C   0  0  0  0  0  0  0  0  0  0  0  0
  1 10  1  0  0  0  0
  1 17  1  0  0  0  0
  2 12  1  0  0  0  0
  2 17  1  0  0  0  0
  3 15  2  0  0  0  0
  4 19  1  0  0  0  0
  5 19  2  0  0  0  0
  6  7  1  0  0  0  0
  6  8  1  0  0  0  0
  6 14  1  0  0  0  0
  7 16  2  0  0  0  0
  8  9  1  0  0  0  0
  8 11  2  0  0  0  0
  9 13  2  0  0  0  0
  9 15  1  0  0  0  0
 10 11  1  0  0  0  0
 10 12  2  0  0  0  0
 12 13  1  0  0  0  0
 14 18  1  0  0  0  0
 15 16  1  0  0  0  0
 16 19  1  0  0  0  0
M  END
>  <DATABASE_ID>
DB00827

>  <DATABASE_NAME>
drugbank

>  <SMILES>
O1c2c(OC1)cc1N(N=C(C(O)=O)C(=O)c1c2)CC

>  <INCHI_IDENTIFIER>
InChI=1S/C12H10N2O5/c1-2-14-7-4-9-8(18-5-19-9)3-6(7)11(15)10(13-14)12(16)17/h3-4H,2,5H2,1H3,(H,16,17)

>  <INCHI_KEY>
InChIKey=VDUWPHTZYNWKRN-UHFFFAOYSA-N

>  <JCHEM_ACCEPTOR_COUNT>
7

>  <JCHEM_AVERAGE_POLARIZABILITY>
24.721924

>  <JCHEM_BIOAVAILABILITY>
1

>  <JCHEM_DONOR_COUNT>
1

>  <JCHEM_EXACT_MASS>
262.05896

>  <JCHEM_FORMAL_CHARGE>
0

>  <JCHEM_FORMULA>
C12H10N2O5

>  <JCHEM_GHOSE_FILTER>
1

>  <JCHEM_IUPAC>
1-ethyl-4-oxo-1H,4H,7H-[1,3]dioxolo[4,5-g]cinnoline-3-carboxylic acid

>  <ALOGPS_LOGP>
1.25

>  <JCHEM_LOGP>
1.7161168

>  <ALOGPS_LOGS>
-2.4400001

>  <JCHEM_MASS>
262.2182

>  <JCHEM_MDDR_LIKE_RULE>
0

>  <JCHEM_NUMBER_OF_RINGS>
3

>  <JCHEM_PHYSIOLOGICAL_CHARGE>
-1

>  <JCHEM_PKA_STRONGEST_ACIDIC>
4.930532

>  <JCHEM_PKA_STRONGEST_BASIC>
-4.6268024

>  <JCHEM_POLAR_SURFACE_AREA>
88.43

>  <JCHEM_REFRACTIVITY>
73.602203

>  <JCHEM_ROTATABLE_BOND_COUNT>
2

>  <JCHEM_RULE_OF_FIVE>
1

>  <ALOGPS_SOLUBILITY>
9.61e-01 g/l

>  <JCHEM_TRADITIONAL_IUPAC>
cinoxacin

>  <JCHEM_VEBER_RULE>
0

>  <DRUGBANK_ID>
DB00827

>  <DRUG_GROUPS>
approved; withdrawn

>  <GENERIC_NAME>
Cinoxacin

>  <SYNONYMS>
Cinoxacin; Cinoxacine; Cinoxacino; Cinoxacinum

>  <BRANDS>
Cinobac; Mecicon; Tatsulexin; Urocinox

$$$$
Fosfomycin
 OpenBabel02121510022D

  8  8  0  0  1  0  0  0  0  0999 V2000
    3.6020    0.0230    0.0000 P   0  0  0  0  0  0  0  0  0  0  0  0
    2.0620    0.4360    0.0000 O   0  0  0  0  0  0  0  0  0  0  0  0
    4.4270    0.0230    0.0000 O   0  0  0  0  0  0  0  0  0  0  0  0
    3.6020    0.8480    0.0000 O   0  0  0  0  0  0  0  0  0  0  0  0
    3.6020   -0.8020    0.0000 O   0  0  0  0  0  0  0  0  0  0  0  0
    2.7770    0.0230    0.0000 C   0  0  1  0  0  0  0  0  0  0  0  0
    2.0620   -0.3890    0.0000 C   0  0  2  0  0  0  0  0  0  0  0  0
    1.6500   -1.1040    0.0000 C   0  0  0  0  0  0  0  0  0  0  0  0
  1  3  1  0  0  0  0
  1  4  1  0  0  0  0
  1  5  2  0  0  0  0
  2  6  1  0  0  0  0
  2  7  1  0  0  0  0
  6  1  1  6  0  0  0
  6  7  1  0  0  0  0
  7  8  1  6  0  0  0
M  END
>  <DATABASE_ID>
DB00828

>  <DATABASE_NAME>
drugbank

>  <SMILES>
P(O)(O)(=O)[C@H]1O[C@H]1C

>  <INCHI_IDENTIFIER>
InChI=1S/C3H7O4P/c1-2-3(7-2)8(4,5)6/h2-3H,1H3,(H2,4,5,6)/t2-,3+/m0/s1

>  <INCHI_KEY>
InChIKey=YMDXZJFXQJVXBF-STHAYSLISA-N

>  <JCHEM_ACCEPTOR_COUNT>
4

>  <JCHEM_AVERAGE_POLARIZABILITY>
10.802824

>  <JCHEM_BIOAVAILABILITY>
1

>  <JCHEM_DONOR_COUNT>
2

>  <JCHEM_EXACT_MASS>
138.00819

>  <JCHEM_FORMAL_CHARGE>
0

>  <JCHEM_FORMULA>
C3H7O4P

>  <JCHEM_GHOSE_FILTER>
0

>  <JCHEM_IUPAC>
[(2R,3S)-3-methyloxiran-2-yl]phosphonic acid

>  <ALOGPS_LOGP>
-0.86000001

>  <JCHEM_LOGP>
-0.73777491

>  <ALOGPS_LOGS>
-0.47

>  <JCHEM_MASS>
138.05901

>  <JCHEM_MDDR_LIKE_RULE>
0

>  <JCHEM_NUMBER_OF_RINGS>
1

>  <JCHEM_PHYSIOLOGICAL_CHARGE>
-1

>  <JCHEM_PKA>
7.820828

>  <JCHEM_PKA_STRONGEST_ACIDIC>
1.2504967

>  <JCHEM_PKA_STRONGEST_BASIC>
-4.3063693

>  <JCHEM_POLAR_SURFACE_AREA>
70.059998

>  <JCHEM_REFRACTIVITY>
25.873699

>  <JCHEM_ROTATABLE_BOND_COUNT>
1

>  <JCHEM_RULE_OF_FIVE>
1

>  <ALOGPS_SOLUBILITY>
4.69e+01 g/l

>  <JCHEM_TRADITIONAL_IUPAC>
(2R,3S)-3-methyloxiran-2-ylphosphonic acid

>  <JCHEM_VEBER_RULE>
0

>  <DRUGBANK_ID>
DB00828

>  <DRUG_GROUPS>
approved

>  <GENERIC_NAME>
Fosfomycin

>  <SYNONYMS>
Fosfocina; Phosphomycin; Phosphonomycin

>  <BRANDS>
Monurol; Veramina

>  <SALTS>
Fosfomycin calcium monohydrate; Fosfomycin disodium; Fosfomycin tromethamine

$$$$
Diazepam
 OpenBabel02121510022D

 20 22  0  0  0  0  0  0  0  0999 V2000
    2.8170   -2.3590    0.0000 Cl  0  0  0  0  0  0  0  0  0  0  0  0
    2.6110    2.3590    0.0000 O   0  0  0  0  0  0  0  0  0  0  0  0
    2.4540    0.9710    0.0000 N   0  0  0  0  0  0  0  0  0  0  0  0
    4.3080    0.9710    0.0000 N   0  0  0  0  0  0  0  0  0  0  0  0
    3.3810   -0.1910    0.0000 C   0  0  0  0  0  0  0  0  0  0  0  0
    2.6380    0.1670    0.0000 C   0  0  0  0  0  0  0  0  0  0  0  0
    4.1240    0.1670    0.0000 C   0  0  0  0  0  0  0  0  0  0  0  0
    3.7940    1.6160    0.0000 C   0  0  0  0  0  0  0  0  0  0  0  0
    2.9690    1.6160    0.0000 C   0  0  0  0  0  0  0  0  0  0  0  0
    4.7690   -0.3480    0.0000 C   0  0  0  0  0  0  0  0  0  0  0  0
    3.4590   -1.0470    0.0000 C   0  0  0  0  0  0  0  0  0  0  0  0
    1.9200   -0.3060    0.0000 C   0  0  0  0  0  0  0  0  0  0  0  0
    1.6500    1.1540    0.0000 C   0  0  0  0  0  0  0  0  0  0  0  0
    2.7520   -1.5370    0.0000 C   0  0  0  0  0  0  0  0  0  0  0  0
    1.9780   -1.1640    0.0000 C   0  0  0  0  0  0  0  0  0  0  0  0
    5.5370   -0.0460    0.0000 C   0  0  0  0  0  0  0  0  0  0  0  0
    4.6460   -1.1640    0.0000 C   0  0  0  0  0  0  0  0  0  0  0  0
    6.1820   -0.5610    0.0000 C   0  0  0  0  0  0  0  0  0  0  0  0
    5.2920   -1.6780    0.0000 C   0  0  0  0  0  0  0  0  0  0  0  0
    6.0590   -1.3760    0.0000 C   0  0  0  0  0  0  0  0  0  0  0  0
  1 14  1  0  0  0  0
  2  9  2  0  0  0  0
  3  6  1  0  0  0  0
  3  9  1  0  0  0  0
  3 13  1  0  0  0  0
  4  7  2  0  0  0  0
  4  8  1  0  0  0  0
  5  6  2  0  0  0  0
  5  7  1  0  0  0  0
  5 11  1  0  0  0  0
  6 12  1  0  0  0  0
  7 10  1  0  0  0  0
  8  9  1  0  0  0  0
 10 16  2  0  0  0  0
 10 17  1  0  0  0  0
 11 14  2  0  0  0  0
 12 15  2  0  0  0  0
 14 15  1  0  0  0  0
 16 18  1  0  0  0  0
 17 19  2  0  0  0  0
 18 20  2  0  0  0  0
 19 20  1  0  0  0  0
M  END
>  <DATABASE_ID>
DB00829

>  <DATABASE_NAME>
drugbank

>  <SMILES>
Clc1cc2c(N(C)C(=O)CN=C2c2ccccc2)cc1

>  <INCHI_IDENTIFIER>
InChI=1S/C16H13ClN2O/c1-19-14-8-7-12(17)9-13(14)16(18-10-15(19)20)11-5-3-2-4-6-11/h2-9H,10H2,1H3

>  <INCHI_KEY>
InChIKey=AAOVKJBEBIDNHE-UHFFFAOYSA-N

>  <JCHEM_ACCEPTOR_COUNT>
2

>  <JCHEM_AVERAGE_POLARIZABILITY>
29.386528

>  <JCHEM_BIOAVAILABILITY>
1

>  <JCHEM_DONOR_COUNT>
0

>  <JCHEM_EXACT_MASS>
284.07166

>  <JCHEM_FORMAL_CHARGE>
0

>  <JCHEM_FORMULA>
C16H13ClN2O

>  <JCHEM_GHOSE_FILTER>
1

>  <JCHEM_IUPAC>
7-chloro-1-methyl-5-phenyl-2,3-dihydro-1H-1,4-benzodiazepin-2-one

>  <ALOGPS_LOGP>
2.6300001

>  <JCHEM_LOGP>
3.0760865

>  <ALOGPS_LOGS>
-4.3699999

>  <JCHEM_MASS>
284.73999

>  <JCHEM_MDDR_LIKE_RULE>
0

>  <JCHEM_NUMBER_OF_RINGS>
3

>  <JCHEM_PHYSIOLOGICAL_CHARGE>
0

>  <JCHEM_PKA_STRONGEST_BASIC>
2.9214504

>  <JCHEM_POLAR_SURFACE_AREA>
32.669998

>  <JCHEM_REFRACTIVITY>
79.811897

>  <JCHEM_ROTATABLE_BOND_COUNT>
1

>  <JCHEM_RULE_OF_FIVE>
1

>  <ALOGPS_SOLUBILITY>
1.22e-02 g/l

>  <JCHEM_TRADITIONAL_IUPAC>
diazepam

>  <JCHEM_VEBER_RULE>
1

>  <DRUGBANK_ID>
DB00829

>  <DRUG_GROUPS>
approved; illicit

>  <GENERIC_NAME>
Diazepam

>  <SYNONYMS>
7-chloro-1,3-dihydro-1-methyl-5-phenyl-2H-1,4-benzodiazepin-2-one; Methyl diazepinone

>  <BRANDS>
Diapam; Diastat; Diazemuls; Nervium; Relanium; Valium

$$$$
Trifluoperazine
 OpenBabel02121510022D

 28 31  0  0  1  0  0  0  0  0999 V2000
    5.2220   -2.6670    0.0000 S   0  0  0  0  0  0  0  0  0  0  0  0
    7.7180   -0.2840    0.0000 F   0  0  0  0  0  0  0  0  0  0  0  0
    8.5490   -1.7100    0.0000 F   0  0  0  0  0  0  0  0  0  0  0  0
    8.8460   -0.5820    0.0000 F   0  0  0  0  0  0  0  0  0  0  0  0
    3.7930    1.4580    0.0000 N   0  0  0  0  0  0  0  0  0  0  0  0
    2.3640    2.2830    0.0000 N   0  0  0  0  0  0  0  0  0  0  0  0
    5.2220   -1.0170    0.0000 N   0  0  0  0  0  0  0  0  0  0  0  0
    3.7930    2.2830    0.0000 C   0  0  0  0  0  0  0  0  0  0  0  0
    3.0790    1.0450    0.0000 C   0  0  0  0  0  0  0  0  0  0  0  0
    4.5070    1.0450    0.0000 C   0  0  0  0  0  0  0  0  0  0  0  0
    3.0790    2.6950    0.0000 C   0  0  0  0  0  0  0  0  0  0  0  0
    2.3640    1.4580    0.0000 C   0  0  0  0  0  0  0  0  0  0  0  0
    4.5070    0.2200    0.0000 C   0  0  0  0  0  0  0  0  0  0  0  0
    5.2220   -0.1920    0.0000 C   0  0  0  0  0  0  0  0  0  0  0  0
    1.6500    2.6950    0.0000 C   0  0  0  0  0  0  0  0  0  0  0  0
    5.9360   -1.4290    0.0000 C   0  0  0  0  0  0  0  0  0  0  0  0
    4.5070   -1.4290    0.0000 C   0  0  0  0  0  0  0  0  0  0  0  0
    5.9360   -2.2540    0.0000 C   0  0  0  0  0  0  0  0  0  0  0  0
    4.5070   -2.2540    0.0000 C   0  0  0  0  0  0  0  0  0  0  0  0
    6.6730   -0.9880    0.0000 C   0  0  0  0  0  0  0  0  0  0  0  0
    3.7700   -0.9880    0.0000 C   0  0  0  0  0  0  0  0  0  0  0  0
    7.4210   -1.4120    0.0000 C   0  0  0  0  0  0  0  0  0  0  0  0
    6.6730   -2.6950    0.0000 C   0  0  0  0  0  0  0  0  0  0  0  0
    3.7700   -2.6950    0.0000 C   0  0  0  0  0  0  0  0  0  0  0  0
    7.4210   -2.2710    0.0000 C   0  0  0  0  0  0  0  0  0  0  0  0
    3.0220   -1.4120    0.0000 C   0  0  0  0  0  0  0  0  0  0  0  0
    3.0220   -2.2710    0.0000 C   0  0  0  0  0  0  0  0  0  0  0  0
    8.1340   -0.9970    0.0000 C   0  0  0  0  0  0  0  0  0  0  0  0
  1 18  1  0  0  0  0
  1 19  1  0  0  0  0
  2 28  1  0  0  0  0
  3 28  1  0  0  0  0
  4 28  1  0  0  0  0
  5  8  1  0  0  0  0
  5  9  1  0  0  0  0
  5 10  1  0  0  0  0
  6 11  1  0  0  0  0
  6 12  1  0  0  0  0
  6 15  1  0  0  0  0
  7 14  1  0  0  0  0
  7 16  1  0  0  0  0
  7 17  1  0  0  0  0
  8 11  1  0  0  0  0
  9 12  1  0  0  0  0
 10 13  1  0  0  0  0
 13 14  1  0  0  0  0
 16 18  1  0  0  0  0
 16 20  2  0  0  0  0
 17 19  2  0  0  0  0
 17 21  1  0  0  0  0
 18 23  2  0  0  0  0
 19 24  1  0  0  0  0
 20 22  1  0  0  0  0
 21 26  2  0  0  0  0
 22 25  2  0  0  0  0
 22 28  1  0  0  0  0
 23 25  1  0  0  0  0
 24 27  2  0  0  0  0
 26 27  1  0  0  0  0
M  END
>  <DATABASE_ID>
DB00831

>  <DATABASE_NAME>
drugbank

>  <SMILES>
S1c2c(N(c3c1cccc3)CCCN1CCN(CC1)C)cc(cc2)C(F)(F)F

>  <INCHI_IDENTIFIER>
InChI=1S/C21H24F3N3S/c1-25-11-13-26(14-12-25)9-4-10-27-17-5-2-3-6-19(17)28-20-8-7-16(15-18(20)27)21(22,23)24/h2-3,5-8,15H,4,9-14H2,1H3

>  <INCHI_KEY>
InChIKey=ZEWQUBUPAILYHI-UHFFFAOYSA-N

>  <JCHEM_ACCEPTOR_COUNT>
3

>  <JCHEM_AVERAGE_POLARIZABILITY>
41.944412

>  <JCHEM_BIOAVAILABILITY>
1

>  <JCHEM_DONOR_COUNT>
0

>  <JCHEM_EXACT_MASS>
407.16431

>  <JCHEM_FORMAL_CHARGE>
0

>  <JCHEM_FORMULA>
C21H24F3N3S

>  <JCHEM_GHOSE_FILTER>
1

>  <JCHEM_IUPAC>
10-[3-(4-methylpiperazin-1-yl)propyl]-2-(trifluoromethyl)-10H-phenothiazine

>  <ALOGPS_LOGP>
4.8699999

>  <JCHEM_LOGP>
4.6559238

>  <ALOGPS_LOGS>
-4.6700001

>  <JCHEM_MASS>
407.496

>  <JCHEM_MDDR_LIKE_RULE>
0

>  <JCHEM_NUMBER_OF_RINGS>
4

>  <JCHEM_PHYSIOLOGICAL_CHARGE>
1

>  <JCHEM_PKA_STRONGEST_BASIC>
8.3891573

>  <JCHEM_POLAR_SURFACE_AREA>
9.7200003

>  <JCHEM_REFRACTIVITY>
110.9753

>  <JCHEM_ROTATABLE_BOND_COUNT>
5

>  <JCHEM_RULE_OF_FIVE>
1

>  <ALOGPS_SOLUBILITY>
8.76e-03 g/l

>  <JCHEM_TRADITIONAL_IUPAC>
trifluoperazine

>  <JCHEM_VEBER_RULE>
1

>  <DRUGBANK_ID>
DB00831

>  <DRUG_GROUPS>
approved

>  <GENERIC_NAME>
Trifluoperazine

>  <SYNONYMS>
Trifluoperazina; Trifluoroperazine; Trifluperazine

>  <BRANDS>
Eskazine; Eskazinyl; Jatroneural; Modalina; Stelazine; Terfluzine; Trifluoperaz; Triftazin

>  <SALTS>
Trifluoperazine Hydrochloride

$$$$
Cefaclor
 OpenBabel02121510022D

 25 27  0  0  1  0  0  0  0  0999 V2000
   15.1260   -5.2680    0.0000 C   0  0  2  0  0  0  0  0  0  0  0  0
   15.1260   -6.0930    0.0000 N   0  0  0  0  0  0  0  0  0  0  0  0
   15.8400   -6.5060    0.0000 C   0  0  0  0  0  0  0  0  0  0  0  0
   16.5550   -6.0930    0.0000 C   0  0  0  0  0  0  0  0  0  0  0  0
   16.5550   -5.2680    0.0000 C   0  0  0  0  0  0  0  0  0  0  0  0
   15.8400   -4.8560    0.0000 S   0  0  0  0  0  0  0  0  0  0  0  0
   14.3010   -5.2680    0.0000 C   0  0  1  0  0  0  0  0  0  0  0  0
   14.3010   -6.0930    0.0000 C   0  0  0  0  0  0  0  0  0  0  0  0
   13.5860   -4.8560    0.0000 N   0  0  0  0  0  0  0  0  0  0  0  0
   12.8720   -5.2680    0.0000 C   0  0  0  0  0  0  0  0  0  0  0  0
   12.8720   -6.0930    0.0000 O   0  0  0  0  0  0  0  0  0  0  0  0
   13.5860   -6.5060    0.0000 O   0  0  0  0  0  0  0  0  0  0  0  0
   12.1570   -4.8560    0.0000 C   0  0  1  0  0  0  0  0  0  0  0  0
   17.2800   -6.5120    0.0000 Cl  0  0  0  0  0  0  0  0  0  0  0  0
   15.8400   -7.3300    0.0000 C   0  0  0  0  0  0  0  0  0  0  0  0
   15.1160   -7.7490    0.0000 O   0  0  0  0  0  0  0  0  0  0  0  0
   16.5450   -7.7370    0.0000 O   0  0  0  0  0  0  0  0  0  0  0  0
   11.4310   -5.2750    0.0000 C   0  0  0  0  0  0  0  0  0  0  0  0
   10.7180   -4.8630    0.0000 C   0  0  0  0  0  0  0  0  0  0  0  0
   10.0040   -5.2750    0.0000 C   0  0  0  0  0  0  0  0  0  0  0  0
   10.0040   -6.0990    0.0000 C   0  0  0  0  0  0  0  0  0  0  0  0
   10.7180   -6.5110    0.0000 C   0  0  0  0  0  0  0  0  0  0  0  0
   11.4310   -6.0990    0.0000 C   0  0  0  0  0  0  0  0  0  0  0  0
   12.1570   -4.0280    0.0000 N   0  0  0  0  0  0  0  0  0  0  0  0
   15.1260   -4.4420    0.0000 H   0  0  0  0  0  0  0  0  0  0  0  0
  1  2  1  0  0  0  0
  1  6  1  0  0  0  0
  1  7  1  0  0  0  0
  1 25  1  6  0  0  0
  2  3  1  0  0  0  0
  2  8  1  0  0  0  0
  3  4  2  0  0  0  0
  3 15  1  0  0  0  0
  4  5  1  0  0  0  0
  4 14  1  0  0  0  0
  5  6  1  0  0  0  0
  7  8  1  0  0  0  0
  7  9  1  1  0  0  0
  8 12  2  0  0  0  0
  9 10  1  0  0  0  0
 10 11  2  0  0  0  0
 13 10  1  1  0  0  0
 13 18  1  0  0  0  0
 13 24  1  0  0  0  0
 15 16  2  0  0  0  0
 15 17  1  0  0  0  0
 18 19  1  0  0  0  0
 18 23  2  0  0  0  0
 19 20  2  0  0  0  0
 20 21  1  0  0  0  0
 21 22  2  0  0  0  0
 22 23  1  0  0  0  0
M  END
>  <DATABASE_ID>
DB00833

>  <DATABASE_NAME>
drugbank

>  <SMILES>
ClC=1CS[C@H]2N(C=1C(O)=O)C(=O)[C@H]2NC(=O)[C@H](N)c1ccccc1

>  <INCHI_IDENTIFIER>
InChI=1S/C15H14ClN3O4S/c16-8-6-24-14-10(13(21)19(14)11(8)15(22)23)18-12(20)9(17)7-4-2-1-3-5-7/h1-5,9-10,14H,6,17H2,(H,18,20)(H,22,23)/t9-,10-,14-/m1/s1

>  <INCHI_KEY>
InChIKey=QYIYFLOTGYLRGG-GPCCPHFNSA-N

>  <JCHEM_ACCEPTOR_COUNT>
5

>  <JCHEM_AVERAGE_POLARIZABILITY>
35.113926

>  <JCHEM_BIOAVAILABILITY>
1

>  <JCHEM_DONOR_COUNT>
3

>  <JCHEM_EXACT_MASS>
367.03937

>  <JCHEM_FORMAL_CHARGE>
0

>  <JCHEM_FORMULA>
C15H14ClN3O4S

>  <JCHEM_GHOSE_FILTER>
0

>  <JCHEM_IUPAC>
(6R,7R)-7-[(2R)-2-amino-2-phenylacetamido]-3-chloro-8-oxo-5-thia-1-azabicyclo[4.2.0]oct-2-ene-2-carboxylic acid

>  <ALOGPS_LOGP>
0.85000002

>  <JCHEM_LOGP>
-2.3063354

>  <ALOGPS_LOGS>
-3.24

>  <JCHEM_MASS>
367.80701

>  <JCHEM_MDDR_LIKE_RULE>
0

>  <JCHEM_NUMBER_OF_RINGS>
3

>  <JCHEM_PHYSIOLOGICAL_CHARGE>
0

>  <JCHEM_PKA>
11.258408

>  <JCHEM_PKA_STRONGEST_ACIDIC>
3.0266292

>  <JCHEM_PKA_STRONGEST_BASIC>
7.4381766

>  <JCHEM_POLAR_SURFACE_AREA>
112.73

>  <JCHEM_REFRACTIVITY>
89.561798

>  <JCHEM_ROTATABLE_BOND_COUNT>
4

>  <JCHEM_RULE_OF_FIVE>
1

>  <ALOGPS_SOLUBILITY>
2.10e-01 g/l

>  <JCHEM_TRADITIONAL_IUPAC>
cefaclor

>  <JCHEM_VEBER_RULE>
0

>  <DRUGBANK_ID>
DB00833

>  <DRUG_GROUPS>
approved

>  <GENERIC_NAME>
Cefaclor

>  <SYNONYMS>
CCL; Cefaclor; Cefaclor; Cefaclor; Cefacloro ; Cefaclorum; Céfeaclor ; Cephaclor

>  <BRANDS>
Alenfral; Alfacet; Alfatil; Alfatil LP; Ceclor; Ceclor CD; Distaclor; Keflor; Kefral; Panacef; Panoral; Raniclor

$$$$
Mifepristone
 OpenBabel02121510022D

 34 38  0  0  1  0  0  0  0  0999 V2000
    7.1780    1.0770    0.0000 O   0  0  0  0  0  0  0  0  0  0  0  0
    2.2020   -2.4780    0.0000 O   0  0  0  0  0  0  0  0  0  0  0  0
    2.3640    1.6900    0.0000 N   0  0  0  0  0  0  0  0  0  0  0  0
    6.6510    0.0400    0.0000 C   0  0  1  0  0  0  0  0  0  0  0  0
    6.6510   -0.7840    0.0000 C   0  0  2  0  0  0  0  0  0  0  0  0
    5.9370   -1.1970    0.0000 C   0  0  1  0  0  0  0  0  0  0  0  0
    7.4320    0.2920    0.0000 C   0  0  2  0  0  0  0  0  0  0  0  0
    5.9370    0.4530    0.0000 C   0  0  0  0  0  0  0  0  0  0  0  0
    7.4320   -1.0360    0.0000 C   0  0  0  0  0  0  0  0  0  0  0  0
    7.9140   -0.3720    0.0000 C   0  0  0  0  0  0  0  0  0  0  0  0
    5.2220    0.0400    0.0000 C   0  0  1  0  0  0  0  0  0  0  0  0
    5.2220   -0.7840    0.0000 C   0  0  0  0  0  0  0  0  0  0  0  0
    5.9500   -2.0560    0.0000 C   0  0  0  0  0  0  0  0  0  0  0  0
    6.6510    0.8660    0.0000 C   0  0  0  0  0  0  0  0  0  0  0  0
    4.4720   -1.2030    0.0000 C   0  0  0  0  0  0  0  0  0  0  0  0
    5.2090   -2.4920    0.0000 C   0  0  0  0  0  0  0  0  0  0  0  0
    4.5080    0.4530    0.0000 C   0  0  0  0  0  0  0  0  0  0  0  0
    4.4650   -2.0620    0.0000 C   0  0  0  0  0  0  0  0  0  0  0  0
    8.1000    0.7760    0.0000 C   0  0  0  0  0  0  0  0  0  0  0  0
    3.7070   -0.7370    0.0000 C   0  0  0  0  0  0  0  0  0  0  0  0
    3.6930   -2.5160    0.0000 C   0  0  0  0  0  0  0  0  0  0  0  0
    2.9250   -1.1730    0.0000 C   0  0  0  0  0  0  0  0  0  0  0  0
    3.7940    0.0400    0.0000 C   0  0  0  0  0  0  0  0  0  0  0  0
    4.5080    1.2780    0.0000 C   0  0  0  0  0  0  0  0  0  0  0  0
    2.9180   -2.0680    0.0000 C   0  0  0  0  0  0  0  0  0  0  0  0
    8.7690    1.2600    0.0000 C   0  0  0  0  0  0  0  0  0  0  0  0
    3.0790    0.4530    0.0000 C   0  0  0  0  0  0  0  0  0  0  0  0
    3.7940    1.6900    0.0000 C   0  0  0  0  0  0  0  0  0  0  0  0
    3.0790    1.2780    0.0000 C   0  0  0  0  0  0  0  0  0  0  0  0
    9.4370    1.7430    0.0000 C   0  0  0  0  0  0  0  0  0  0  0  0
    2.3640    2.5160    0.0000 C   0  0  0  0  0  0  0  0  0  0  0  0
    1.6500    1.2780    0.0000 C   0  0  0  0  0  0  0  0  0  0  0  0
    6.7210   -1.4410    0.0000 H   0  0  0  0  0  0  0  0  0  0  0  0
    6.5110   -1.5230    0.0000 H   0  0  0  0  0  0  0  0  0  0  0  0
  2 25  2  0  0  0  0
  3 29  1  0  0  0  0
  3 31  1  0  0  0  0
  3 32  1  0  0  0  0
  4  5  1  0  0  0  0
  4  7  1  0  0  0  0
  4  8  1  0  0  0  0
  4 14  1  1  0  0  0
  5  6  1  0  0  0  0
  5  9  1  0  0  0  0
  5 33  1  6  0  0  0
  6 12  1  0  0  0  0
  6 13  1  0  0  0  0
  6 34  1  1  0  0  0
  7  1  1  1  0  0  0
  7 10  1  0  0  0  0
  7 19  1  0  0  0  0
  8 11  1  0  0  0  0
  9 10  1  0  0  0  0
 11 12  1  0  0  0  0
 11 17  1  1  0  0  0
 12 15  2  0  0  0  0
 13 16  1  0  0  0  0
 15 18  1  0  0  0  0
 15 20  1  0  0  0  0
 16 18  1  0  0  0  0
 17 23  1  0  0  0  0
 17 24  2  0  0  0  0
 18 21  2  0  0  0  0
 19 26  3  0  0  0  0
 20 22  1  0  0  0  0
 21 25  1  0  0  0  0
 22 25  1  0  0  0  0
 23 27  2  0  0  0  0
 24 28  1  0  0  0  0
 26 30  1  0  0  0  0
 27 29  1  0  0  0  0
 28 29  2  0  0  0  0
M  END
>  <DATABASE_ID>
DB00834

>  <DATABASE_NAME>
drugbank

>  <SMILES>
O=C1CCC2=C3[C@H]([C@@H]4CC[C@@](O)(C#CC)[C@]4(C[C@@H]3c3ccc(N(C)C)cc3)C)CCC2=C1

>  <INCHI_IDENTIFIER>
InChI=1S/C29H35NO2/c1-5-15-29(32)16-14-26-24-12-8-20-17-22(31)11-13-23(20)27(24)25(18-28(26,29)2)19-6-9-21(10-7-19)30(3)4/h6-7,9-10,17,24-26,32H,8,11-14,16,18H2,1-4H3/t24-,25+,26-,28-,29-/m0/s1

>  <INCHI_KEY>
InChIKey=VKHAHZOOUSRJNA-GCNJZUOMSA-N

>  <JCHEM_ACCEPTOR_COUNT>
3

>  <JCHEM_AVERAGE_POLARIZABILITY>
50.708241

>  <JCHEM_BIOAVAILABILITY>
1

>  <JCHEM_DONOR_COUNT>
1

>  <JCHEM_EXACT_MASS>
429.26678

>  <JCHEM_FORMAL_CHARGE>
0

>  <JCHEM_FORMULA>
C29H35NO2

>  <JCHEM_GHOSE_FILTER>
0

>  <JCHEM_IUPAC>
(10S,11S,14S,15S,17R)-17-[4-(dimethylamino)phenyl]-14-hydroxy-15-methyl-14-(prop-1-yn-1-yl)tetracyclo[8.7.0.0^{2,7}.0^{11,15}]heptadeca-1,6-dien-5-one

>  <ALOGPS_LOGP>
5.3299999

>  <JCHEM_LOGP>
5.1332874

>  <ALOGPS_LOGS>
-5.1100001

>  <JCHEM_MASS>
429.59369

>  <JCHEM_MDDR_LIKE_RULE>
0

>  <JCHEM_NUMBER_OF_RINGS>
5

>  <JCHEM_PHYSIOLOGICAL_CHARGE>
0

>  <JCHEM_PKA>
19.026453

>  <JCHEM_PKA_STRONGEST_ACIDIC>
12.865694

>  <JCHEM_PKA_STRONGEST_BASIC>
4.8896308

>  <JCHEM_POLAR_SURFACE_AREA>
40.540001

>  <JCHEM_REFRACTIVITY>
132.5809

>  <JCHEM_ROTATABLE_BOND_COUNT>
3

>  <JCHEM_RULE_OF_FIVE>
0

>  <ALOGPS_SOLUBILITY>
3.36e-03 g/l

>  <JCHEM_TRADITIONAL_IUPAC>
mifepristone

>  <JCHEM_VEBER_RULE>
0

>  <DRUGBANK_ID>
DB00834

>  <DRUG_GROUPS>
approved; investigational

>  <GENERIC_NAME>
Mifepristone

>  <SYNONYMS>
Mifepriston; Mifepristona; Mifépristone; Mifepristonum

>  <BRANDS>
Corlux; Korlym; Mefipil; Mifegyne; Mifeprex

$$$$
Loperamide
 OpenBabel02121510022D

 34 37  0  0  0  0  0  0  0  0999 V2000
    6.4900    4.5230    0.0000 Cl  0  0  0  0  0  0  0  0  0  0  0  0
    4.4270    2.3790    0.0000 O   0  0  0  0  0  0  0  0  0  0  0  0
    5.3630   -1.3330    0.0000 O   0  0  0  0  0  0  0  0  0  0  0  0
    4.8400    0.0150    0.0000 N   0  0  0  0  0  0  0  0  0  0  0  0
    5.7250   -2.3300    0.0000 N   0  0  0  0  0  0  0  0  0  0  0  0
    4.8400    1.6650    0.0000 C   0  0  0  0  0  0  0  0  0  0  0  0
    4.1250    1.2520    0.0000 C   0  0  0  0  0  0  0  0  0  0  0  0
    5.5540    1.2520    0.0000 C   0  0  0  0  0  0  0  0  0  0  0  0
    4.1250    0.4270    0.0000 C   0  0  0  0  0  0  0  0  0  0  0  0
    5.5540    0.4270    0.0000 C   0  0  0  0  0  0  0  0  0  0  0  0
    4.8400   -0.8100    0.0000 C   0  0  0  0  0  0  0  0  0  0  0  0
    4.1250   -1.2230    0.0000 C   0  0  0  0  0  0  0  0  0  0  0  0
    4.1250   -2.0480    0.0000 C   0  0  0  0  0  0  0  0  0  0  0  0
    5.2520    2.3790    0.0000 C   0  0  0  0  0  0  0  0  0  0  0  0
    3.3000   -2.0480    0.0000 C   0  0  0  0  0  0  0  0  0  0  0  0
    4.1250   -2.8730    0.0000 C   0  0  0  0  0  0  0  0  0  0  0  0
    4.9500   -2.0480    0.0000 C   0  0  0  0  0  0  0  0  0  0  0  0
    4.8400    3.0940    0.0000 C   0  0  0  0  0  0  0  0  0  0  0  0
    6.0770    2.3790    0.0000 C   0  0  0  0  0  0  0  0  0  0  0  0
    2.8880   -2.7620    0.0000 C   0  0  0  0  0  0  0  0  0  0  0  0
    4.8400   -3.2850    0.0000 C   0  0  0  0  0  0  0  0  0  0  0  0
    2.8880   -1.3330    0.0000 C   0  0  0  0  0  0  0  0  0  0  0  0
    3.4110   -3.2850    0.0000 C   0  0  0  0  0  0  0  0  0  0  0  0
    5.2520    3.8080    0.0000 C   0  0  0  0  0  0  0  0  0  0  0  0
    6.4900    3.0940    0.0000 C   0  0  0  0  0  0  0  0  0  0  0  0
    6.0770    3.8080    0.0000 C   0  0  0  0  0  0  0  0  0  0  0  0
    2.0620   -2.7620    0.0000 C   0  0  0  0  0  0  0  0  0  0  0  0
    4.8400   -4.1100    0.0000 C   0  0  0  0  0  0  0  0  0  0  0  0
    2.0620   -1.3330    0.0000 C   0  0  0  0  0  0  0  0  0  0  0  0
    3.4110   -4.1100    0.0000 C   0  0  0  0  0  0  0  0  0  0  0  0
    6.3570   -1.8000    0.0000 C   0  0  0  0  0  0  0  0  0  0  0  0
    5.8690   -3.1420    0.0000 C   0  0  0  0  0  0  0  0  0  0  0  0
    1.6500   -2.0480    0.0000 C   0  0  0  0  0  0  0  0  0  0  0  0
    4.1250   -4.5230    0.0000 C   0  0  0  0  0  0  0  0  0  0  0  0
  1 26  1  0  0  0  0
  2  6  1  0  0  0  0
  3 17  2  0  0  0  0
  4  9  1  0  0  0  0
  4 10  1  0  0  0  0
  4 11  1  0  0  0  0
  5 17  1  0  0  0  0
  5 31  1  0  0  0  0
  5 32  1  0  0  0  0
  6  7  1  0  0  0  0
  6  8  1  0  0  0  0
  6 14  1  0  0  0  0
  7  9  1  0  0  0  0
  8 10  1  0  0  0  0
 11 12  1  0  0  0  0
 12 13  1  0  0  0  0
 13 15  1  0  0  0  0
 13 16  1  0  0  0  0
 13 17  1  0  0  0  0
 14 18  2  0  0  0  0
 14 19  1  0  0  0  0
 15 20  2  0  0  0  0
 15 22  1  0  0  0  0
 16 21  2  0  0  0  0
 16 23  1  0  0  0  0
 18 24  1  0  0  0  0
 19 25  2  0  0  0  0
 20 27  1  0  0  0  0
 21 28  1  0  0  0  0
 22 29  2  0  0  0  0
 23 30  2  0  0  0  0
 24 26  2  0  0  0  0
 25 26  1  0  0  0  0
 27 33  2  0  0  0  0
 28 34  2  0  0  0  0
 29 33  1  0  0  0  0
 30 34  1  0  0  0  0
M  END
>  <DATABASE_ID>
DB00836

>  <DATABASE_NAME>
drugbank

>  <SMILES>
Clc1ccc(cc1)C1(O)CCN(CC1)CCC(C(=O)N(C)C)(c1ccccc1)c1ccccc1

>  <INCHI_IDENTIFIER>
InChI=1S/C29H33ClN2O2/c1-31(2)27(33)29(24-9-5-3-6-10-24,25-11-7-4-8-12-25)19-22-32-20-17-28(34,18-21-32)23-13-15-26(30)16-14-23/h3-16,34H,17-22H2,1-2H3

>  <INCHI_KEY>
InChIKey=RDOIQAHITMMDAJ-UHFFFAOYSA-N

>  <JCHEM_ACCEPTOR_COUNT>
3

>  <JCHEM_AVERAGE_POLARIZABILITY>
52.669243

>  <JCHEM_BIOAVAILABILITY>
1

>  <JCHEM_DONOR_COUNT>
1

>  <JCHEM_EXACT_MASS>
476.22305

>  <JCHEM_FORMAL_CHARGE>
0

>  <JCHEM_FORMULA>
C29H33ClN2O2

>  <JCHEM_GHOSE_FILTER>
0

>  <JCHEM_IUPAC>
4-[4-(4-chlorophenyl)-4-hydroxypiperidin-1-yl]-N,N-dimethyl-2,2-diphenylbutanamide

>  <ALOGPS_LOGP>
4.4400001

>  <JCHEM_LOGP>
4.7711906

>  <ALOGPS_LOGS>
-5.7399998

>  <JCHEM_MASS>
477.03799

>  <JCHEM_MDDR_LIKE_RULE>
1

>  <JCHEM_NUMBER_OF_RINGS>
4

>  <JCHEM_PHYSIOLOGICAL_CHARGE>
1

>  <JCHEM_PKA_STRONGEST_ACIDIC>
13.964883

>  <JCHEM_PKA_STRONGEST_BASIC>
9.4092989

>  <JCHEM_POLAR_SURFACE_AREA>
43.779999

>  <JCHEM_REFRACTIVITY>
139.319

>  <JCHEM_ROTATABLE_BOND_COUNT>
7

>  <JCHEM_RULE_OF_FIVE>
1

>  <ALOGPS_SOLUBILITY>
8.60e-04 g/l

>  <JCHEM_TRADITIONAL_IUPAC>
loperamide

>  <JCHEM_VEBER_RULE>
0

>  <DRUGBANK_ID>
DB00836

>  <DRUG_GROUPS>
approved

>  <GENERIC_NAME>
Loperamide

>  <SYNONYMS>
Loperamid; Loperamida; Lopéramide; Loperamidum

>  <BRANDS>
Dimor; Fortasec; Imodium; Imodium A-D; Kaopectate II; Lopedium; Lopedium express; Loperacap; Lopex; Maalox Anti-Diarrheal; Pepto Diarrhea Control

>  <SALTS>
Loperamide hydrochloride

$$$$
Tolazamide
 OpenBabel02121510022D

 21 22  0  0  0  0  0  0  0  0999 V2000
    4.5080   -1.3160    0.0000 S   0  0  0  0  0  0  0  0  0  0  0  0
    4.5080    0.3340    0.0000 O   0  0  0  0  0  0  0  0  0  0  0  0
    4.0960   -0.6020    0.0000 O   0  0  0  0  0  0  0  0  0  0  0  0
    4.9200   -2.0310    0.0000 O   0  0  0  0  0  0  0  0  0  0  0  0
    5.9370    1.1590    0.0000 N   0  0  0  0  0  0  0  0  0  0  0  0
    5.9370    0.3340    0.0000 N   0  0  0  0  0  0  0  0  0  0  0  0
    5.2220   -0.9040    0.0000 N   0  0  0  0  0  0  0  0  0  0  0  0
    5.5240    2.9660    0.0000 C   0  0  0  0  0  0  0  0  0  0  0  0
    6.3500    2.9660    0.0000 C   0  0  0  0  0  0  0  0  0  0  0  0
    5.0100    2.3210    0.0000 C   0  0  0  0  0  0  0  0  0  0  0  0
    6.8640    2.3210    0.0000 C   0  0  0  0  0  0  0  0  0  0  0  0
    5.1940    1.5170    0.0000 C   0  0  0  0  0  0  0  0  0  0  0  0
    6.6800    1.5170    0.0000 C   0  0  0  0  0  0  0  0  0  0  0  0
    5.2220   -0.0790    0.0000 C   0  0  0  0  0  0  0  0  0  0  0  0
    3.7940   -1.7290    0.0000 C   0  0  0  0  0  0  0  0  0  0  0  0
    3.0790   -1.3160    0.0000 C   0  0  0  0  0  0  0  0  0  0  0  0
    3.7940   -2.5540    0.0000 C   0  0  0  0  0  0  0  0  0  0  0  0
    2.3640   -2.5540    0.0000 C   0  0  0  0  0  0  0  0  0  0  0  0
    2.3640   -1.7290    0.0000 C   0  0  0  0  0  0  0  0  0  0  0  0
    3.0790   -2.9660    0.0000 C   0  0  0  0  0  0  0  0  0  0  0  0
    1.6500   -2.9660    0.0000 C   0  0  0  0  0  0  0  0  0  0  0  0
  1  3  2  0  0  0  0
  1  4  2  0  0  0  0
  1  7  1  0  0  0  0
  1 15  1  0  0  0  0
  2 14  2  0  0  0  0
  5  6  1  0  0  0  0
  5 12  1  0  0  0  0
  5 13  1  0  0  0  0
  6 14  1  0  0  0  0
  7 14  1  0  0  0  0
  8  9  1  0  0  0  0
  8 10  1  0  0  0  0
  9 11  1  0  0  0  0
 10 12  1  0  0  0  0
 11 13  1  0  0  0  0
 15 16  2  0  0  0  0
 15 17  1  0  0  0  0
 16 19  1  0  0  0  0
 17 20  2  0  0  0  0
 18 19  2  0  0  0  0
 18 20  1  0  0  0  0
 18 21  1  0  0  0  0
M  END
>  <DATABASE_ID>
DB00839

>  <DATABASE_NAME>
drugbank

>  <SMILES>
S(=O)(=O)(NC(=O)NN1CCCCCC1)c1ccc(cc1)C

>  <INCHI_IDENTIFIER>
InChI=1S/C14H21N3O3S/c1-12-6-8-13(9-7-12)21(19,20)16-14(18)15-17-10-4-2-3-5-11-17/h6-9H,2-5,10-11H2,1H3,(H2,15,16,18)

>  <INCHI_KEY>
InChIKey=OUDSBRTVNLOZBN-UHFFFAOYSA-N

>  <JCHEM_ACCEPTOR_COUNT>
4

>  <JCHEM_AVERAGE_POLARIZABILITY>
32.821976

>  <JCHEM_BIOAVAILABILITY>
1

>  <JCHEM_DONOR_COUNT>
2

>  <JCHEM_EXACT_MASS>
311.13037

>  <JCHEM_FORMAL_CHARGE>
0

>  <JCHEM_FORMULA>
C14H21N3O3S

>  <JCHEM_GHOSE_FILTER>
1

>  <JCHEM_IUPAC>
1-(azepan-1-yl)-3-[(4-methylbenzene)sulfonyl]urea

>  <ALOGPS_LOGP>
1.4

>  <JCHEM_LOGP>
1.91199

>  <ALOGPS_LOGS>
-3.01

>  <JCHEM_MASS>
311.39999

>  <JCHEM_MDDR_LIKE_RULE>
0

>  <JCHEM_NUMBER_OF_RINGS>
2

>  <JCHEM_PHYSIOLOGICAL_CHARGE>
-1

>  <JCHEM_PKA>
14.165953

>  <JCHEM_PKA_STRONGEST_ACIDIC>
4.0720177

>  <JCHEM_PKA_STRONGEST_BASIC>
1.6132861

>  <JCHEM_POLAR_SURFACE_AREA>
78.510002

>  <JCHEM_REFRACTIVITY>
81.336098

>  <JCHEM_ROTATABLE_BOND_COUNT>
2

>  <JCHEM_RULE_OF_FIVE>
1

>  <ALOGPS_SOLUBILITY>
3.08e-01 g/l

>  <JCHEM_TRADITIONAL_IUPAC>
1-(azepan-1-yl)-3-(4-methylbenzenesulfonyl)urea

>  <JCHEM_VEBER_RULE>
0

>  <DRUGBANK_ID>
DB00839

>  <DRUG_GROUPS>
approved

>  <GENERIC_NAME>
Tolazamide

>  <SYNONYMS>
Tolazamid; Tolazamida; Tolazamide; Tolazamidum

>  <BRANDS>
Desumide; Esulin; Norglycin; Tolanase; Tolazamide; Tolinase

$$$$
Oxazepam
 OpenBabel02121510022D

 20 22  0  0  1  0  0  0  0  0999 V2000
    2.5470   -2.3780    0.0000 Cl  0  0  0  0  0  0  0  0  0  0  0  0
    3.8810    2.3400    0.0000 O   0  0  0  0  0  0  0  0  0  0  0  0
    2.3400    2.3400    0.0000 O   0  0  0  0  0  0  0  0  0  0  0  0
    2.1840    0.9520    0.0000 N   0  0  0  0  0  0  0  0  0  0  0  0
    4.0370    0.9520    0.0000 N   0  0  0  0  0  0  0  0  0  0  0  0
    3.1110   -0.2100    0.0000 C   0  0  0  0  0  0  0  0  0  0  0  0
    3.8540    0.1480    0.0000 C   0  0  0  0  0  0  0  0  0  0  0  0
    2.3670    0.1480    0.0000 C   0  0  0  0  0  0  0  0  0  0  0  0
    4.4990   -0.3670    0.0000 C   0  0  0  0  0  0  0  0  0  0  0  0
    3.5230    1.5970    0.0000 C   0  0  3  0  0  0  0  0  0  0  0  0
    3.1880   -1.0660    0.0000 C   0  0  0  0  0  0  0  0  0  0  0  0
    1.6500   -0.3260    0.0000 C   0  0  0  0  0  0  0  0  0  0  0  0
    2.6980    1.5970    0.0000 C   0  0  0  0  0  0  0  0  0  0  0  0
    2.4820   -1.5560    0.0000 C   0  0  0  0  0  0  0  0  0  0  0  0
    1.7080   -1.1830    0.0000 C   0  0  0  0  0  0  0  0  0  0  0  0
    5.2670   -0.0660    0.0000 C   0  0  0  0  0  0  0  0  0  0  0  0
    4.3760   -1.1830    0.0000 C   0  0  0  0  0  0  0  0  0  0  0  0
    5.9120   -0.5800    0.0000 C   0  0  0  0  0  0  0  0  0  0  0  0
    5.0210   -1.6970    0.0000 C   0  0  0  0  0  0  0  0  0  0  0  0
    5.7890   -1.3960    0.0000 C   0  0  0  0  0  0  0  0  0  0  0  0
  1 14  1  0  0  0  0
  2 10  1  0  0  0  0
  3 13  2  0  0  0  0
  4  8  1  0  0  0  0
  4 13  1  0  0  0  0
  5  7  2  0  0  0  0
  5 10  1  0  0  0  0
  6  7  1  0  0  0  0
  6  8  2  0  0  0  0
  6 11  1  0  0  0  0
  7  9  1  0  0  0  0
  8 12  1  0  0  0  0
  9 16  2  0  0  0  0
  9 17  1  0  0  0  0
 10 13  1  0  0  0  0
 11 14  2  0  0  0  0
 12 15  2  0  0  0  0
 14 15  1  0  0  0  0
 16 18  1  0  0  0  0
 17 19  2  0  0  0  0
 18 20  2  0  0  0  0
 19 20  1  0  0  0  0
M  END
>  <DATABASE_ID>
DB00842

>  <DATABASE_NAME>
drugbank

>  <SMILES>
Clc1cc2c(NC(=O)C(O)N=C2c2ccccc2)cc1

>  <INCHI_IDENTIFIER>
InChI=1S/C15H11ClN2O2/c16-10-6-7-12-11(8-10)13(9-4-2-1-3-5-9)18-15(20)14(19)17-12/h1-8,15,20H,(H,17,19)

>  <INCHI_KEY>
InChIKey=ADIMAYPTOBDMTL-UHFFFAOYSA-N

>  <JCHEM_ACCEPTOR_COUNT>
3

>  <JCHEM_AVERAGE_POLARIZABILITY>
28.379215

>  <JCHEM_BIOAVAILABILITY>
1

>  <JCHEM_DONOR_COUNT>
2

>  <JCHEM_EXACT_MASS>
286.0509

>  <JCHEM_FORMAL_CHARGE>
0

>  <JCHEM_FORMULA>
C15H11ClN2O2

>  <JCHEM_GHOSE_FILTER>
1

>  <JCHEM_IUPAC>
7-chloro-3-hydroxy-5-phenyl-2,3-dihydro-1H-1,4-benzodiazepin-2-one

>  <ALOGPS_LOGP>
2.01

>  <JCHEM_LOGP>
2.9232807

>  <ALOGPS_LOGS>
-3.51

>  <JCHEM_MASS>
286.71301

>  <JCHEM_MDDR_LIKE_RULE>
0

>  <JCHEM_NUMBER_OF_RINGS>
3

>  <JCHEM_PHYSIOLOGICAL_CHARGE>
0

>  <JCHEM_PKA>
12.467055

>  <JCHEM_PKA_STRONGEST_ACIDIC>
10.607201

>  <JCHEM_PKA_STRONGEST_BASIC>
-1.470452

>  <JCHEM_POLAR_SURFACE_AREA>
61.689999

>  <JCHEM_REFRACTIVITY>
77.894402

>  <JCHEM_ROTATABLE_BOND_COUNT>
1

>  <JCHEM_RULE_OF_FIVE>
1

>  <ALOGPS_SOLUBILITY>
8.81e-02 g/l

>  <JCHEM_TRADITIONAL_IUPAC>
oxazepam

>  <JCHEM_VEBER_RULE>
0

>  <DRUGBANK_ID>
DB00842

>  <DRUG_GROUPS>
approved

>  <GENERIC_NAME>
Oxazepam

>  <SYNONYMS>
(+-)-Oxazepam; (RS)-Oxazepam

>  <BRANDS>
Adumbran; Alepam; Alopam; Anxiolit; Durazepam; Limbial; Medopam; Murelax; Noripam; Opamox; Ox-Pam; Oxascand; Praxiten; Purata; Serax; Serenal; Serenid; Serepax; Seresta; Serpax; Sobril; Tazepam; Vaben; Zaxpam

$$$$
Donepezil
 OpenBabel02121510022D

 28 31  0  0  1  0  0  0  0  0999 V2000
    4.8300    2.4090    0.0000 O   0  0  0  0  0  0  0  0  0  0  0  0
    1.6500    0.1360    0.0000 O   0  0  0  0  0  0  0  0  0  0  0  0
    1.6500    1.7860    0.0000 O   0  0  0  0  0  0  0  0  0  0  0  0
    7.1180   -1.1820    0.0000 N   0  0  0  0  0  0  0  0  0  0  0  0
    6.2930    0.2470    0.0000 C   0  0  0  0  0  0  0  0  0  0  0  0
    5.8810    0.9610    0.0000 C   0  0  0  0  0  0  0  0  0  0  0  0
    5.0560    0.9610    0.0000 C   0  0  3  0  0  0  0  0  0  0  0  0
    7.1180    0.2470    0.0000 C   0  0  0  0  0  0  0  0  0  0  0  0
    5.8810   -0.4680    0.0000 C   0  0  0  0  0  0  0  0  0  0  0  0
    7.5310   -0.4680    0.0000 C   0  0  0  0  0  0  0  0  0  0  0  0
    6.2930   -1.1820    0.0000 C   0  0  0  0  0  0  0  0  0  0  0  0
    4.5740    0.2970    0.0000 C   0  0  0  0  0  0  0  0  0  0  0  0
    4.5740    1.6250    0.0000 C   0  0  0  0  0  0  0  0  0  0  0  0
    3.7940    0.5490    0.0000 C   0  0  0  0  0  0  0  0  0  0  0  0
    3.7940    1.3740    0.0000 C   0  0  0  0  0  0  0  0  0  0  0  0
    7.5310   -1.8970    0.0000 C   0  0  0  0  0  0  0  0  0  0  0  0
    3.0790    0.1360    0.0000 C   0  0  0  0  0  0  0  0  0  0  0  0
    3.0790    1.7860    0.0000 C   0  0  0  0  0  0  0  0  0  0  0  0
    8.3560   -1.8970    0.0000 C   0  0  0  0  0  0  0  0  0  0  0  0
    2.3640    0.5490    0.0000 C   0  0  0  0  0  0  0  0  0  0  0  0
    2.3640    1.3740    0.0000 C   0  0  0  0  0  0  0  0  0  0  0  0
    8.7680   -1.1820    0.0000 C   0  0  0  0  0  0  0  0  0  0  0  0
    8.7680   -2.6110    0.0000 C   0  0  0  0  0  0  0  0  0  0  0  0
    9.5930   -1.1820    0.0000 C   0  0  0  0  0  0  0  0  0  0  0  0
    9.5930   -2.6110    0.0000 C   0  0  0  0  0  0  0  0  0  0  0  0
   10.0060   -1.8970    0.0000 C   0  0  0  0  0  0  0  0  0  0  0  0
    1.6500   -0.6890    0.0000 C   0  0  0  0  0  0  0  0  0  0  0  0
    1.6500    2.6110    0.0000 C   0  0  0  0  0  0  0  0  0  0  0  0
  1 13  2  0  0  0  0
  2 20  1  0  0  0  0
  2 27  1  0  0  0  0
  3 21  1  0  0  0  0
  3 28  1  0  0  0  0
  4 10  1  0  0  0  0
  4 11  1  0  0  0  0
  4 16  1  0  0  0  0
  5  6  1  0  0  0  0
  5  8  1  0  0  0  0
  5  9  1  0  0  0  0
  6  7  1  0  0  0  0
  7 12  1  0  0  0  0
  7 13  1  0  0  0  0
  8 10  1  0  0  0  0
  9 11  1  0  0  0  0
 12 14  1  0  0  0  0
 13 15  1  0  0  0  0
 14 15  2  0  0  0  0
 14 17  1  0  0  0  0
 15 18  1  0  0  0  0
 16 19  1  0  0  0  0
 17 20  2  0  0  0  0
 18 21  2  0  0  0  0
 19 22  2  0  0  0  0
 19 23  1  0  0  0  0
 20 21  1  0  0  0  0
 22 24  1  0  0  0  0
 23 25  2  0  0  0  0
 24 26  2  0  0  0  0
 25 26  1  0  0  0  0
M  END
>  <DATABASE_ID>
DB00843

>  <DATABASE_NAME>
drugbank

>  <SMILES>
O(C)c1cc2c(CC(CC3CCN(CC3)Cc3ccccc3)C2=O)cc1OC

>  <INCHI_IDENTIFIER>
InChI=1S/C24H29NO3/c1-27-22-14-19-13-20(24(26)21(19)15-23(22)28-2)12-17-8-10-25(11-9-17)16-18-6-4-3-5-7-18/h3-7,14-15,17,20H,8-13,16H2,1-2H3

>  <INCHI_KEY>
InChIKey=ADEBPBSSDYVVLD-UHFFFAOYSA-N

>  <JCHEM_ACCEPTOR_COUNT>
4

>  <JCHEM_AVERAGE_POLARIZABILITY>
44.33556

>  <JCHEM_BIOAVAILABILITY>
1

>  <JCHEM_DONOR_COUNT>
0

>  <JCHEM_EXACT_MASS>
379.21475

>  <JCHEM_FORMAL_CHARGE>
0

>  <JCHEM_FORMULA>
C24H29NO3

>  <JCHEM_GHOSE_FILTER>
1

>  <JCHEM_IUPAC>
2-[(1-benzylpiperidin-4-yl)methyl]-5,6-dimethoxy-2,3-dihydro-1H-inden-1-one

>  <ALOGPS_LOGP>
4.1399999

>  <JCHEM_LOGP>
4.2079329

>  <ALOGPS_LOGS>
-4.9299998

>  <JCHEM_MASS>
379.492

>  <JCHEM_MDDR_LIKE_RULE>
1

>  <JCHEM_NUMBER_OF_RINGS>
4

>  <JCHEM_PHYSIOLOGICAL_CHARGE>
1

>  <JCHEM_PKA_STRONGEST_ACIDIC>
17.021936

>  <JCHEM_PKA_STRONGEST_BASIC>
8.6247292

>  <JCHEM_POLAR_SURFACE_AREA>
38.77

>  <JCHEM_REFRACTIVITY>
112.1147

>  <JCHEM_ROTATABLE_BOND_COUNT>
6

>  <JCHEM_RULE_OF_FIVE>
1

>  <ALOGPS_SOLUBILITY>
4.50e-03 g/l

>  <JCHEM_TRADITIONAL_IUPAC>
donepezil

>  <JCHEM_VEBER_RULE>
1

>  <DRUGBANK_ID>
DB00843

>  <DRUG_GROUPS>
approved

>  <GENERIC_NAME>
Donepezil

>  <SYNONYMS>
Domepezil; Donepezil; Donepezil; Donepezilo; Donepezilum

>  <BRANDS>
Alzepil; Aricept; Aricept ODT; Davia; Depzil; Donecept; Donecil; Donep; Donepex; Donesyn; Dopezil; Eranz; Memac ; Nomi-Nox; Pezale; Redumas; Zolpezil

>  <SALTS>
Donepezil hydrochloride

$$$$
Clofazimine
 OpenBabel02121510022D

 33 37  0  0  1  0  0  0  0  0999 V2000
    5.9080   -7.7520    0.0000 C   0  0  0  0  0  0  0  0  0  0  0  0
    5.1990   -7.3310    0.0000 N   0  0  0  0  0  0  0  0  0  0  0  0
    5.9080   -8.5670    0.0000 C   0  0  0  0  0  0  0  0  0  0  0  0
    6.6440   -7.3310    0.0000 C   0  0  0  0  0  0  0  0  0  0  0  0
    5.1990   -8.9870    0.0000 N   0  0  0  0  0  0  0  0  0  0  0  0
    7.3280   -8.5670    0.0000 C   0  0  0  0  0  0  0  0  0  0  0  0
    7.3280   -7.7520    0.0000 C   0  0  0  0  0  0  0  0  0  0  0  0
    6.6440   -8.9870    0.0000 C   0  0  0  0  0  0  0  0  0  0  0  0
    4.4620   -7.7520    0.0000 C   0  0  0  0  0  0  0  0  0  0  0  0
    4.4620   -8.5670    0.0000 C   0  0  0  0  0  0  0  0  0  0  0  0
    8.0640   -7.3310    0.0000 N   0  0  0  0  0  0  0  0  0  0  0  0
    8.0640   -8.9870    0.0000 N   0  0  0  0  0  0  0  0  0  0  0  0
    5.1990   -6.5160    0.0000 C   0  0  0  0  0  0  0  0  0  0  0  0
    5.9080   -6.0960    0.0000 C   0  0  0  0  0  0  0  0  0  0  0  0
    4.4620   -6.0960    0.0000 C   0  0  0  0  0  0  0  0  0  0  0  0
    8.7740   -8.5670    0.0000 C   0  0  0  0  0  0  0  0  0  0  0  0
    5.1990   -4.8600    0.0000 C   0  0  0  0  0  0  0  0  0  0  0  0
   10.1930   -7.7520    0.0000 C   0  0  0  0  0  0  0  0  0  0  0  0
    4.4620   -5.2540    0.0000 C   0  0  0  0  0  0  0  0  0  0  0  0
    5.9080   -5.2540    0.0000 C   0  0  0  0  0  0  0  0  0  0  0  0
    8.0640   -6.5160    0.0000 C   0  0  0  0  0  0  0  0  0  0  0  0
    5.1990   -4.0450    0.0000 Cl  0  0  0  0  0  0  0  0  0  0  0  0
   10.9290   -7.3310    0.0000 Cl  0  0  0  0  0  0  0  0  0  0  0  0
    9.4830   -8.9870    0.0000 C   0  0  0  0  0  0  0  0  0  0  0  0
    8.7740   -7.7520    0.0000 C   0  0  0  0  0  0  0  0  0  0  0  0
   10.1930   -8.5670    0.0000 C   0  0  0  0  0  0  0  0  0  0  0  0
    9.4830   -7.3310    0.0000 C   0  0  0  0  0  0  0  0  0  0  0  0
    3.7790   -7.3310    0.0000 C   0  0  0  0  0  0  0  0  0  0  0  0
    3.7790   -8.9870    0.0000 C   0  0  0  0  0  0  0  0  0  0  0  0
    8.7740   -6.0960    0.0000 C   0  0  0  0  0  0  0  0  0  0  0  0
    7.3280   -6.0960    0.0000 C   0  0  0  0  0  0  0  0  0  0  0  0
    3.0430   -7.7520    0.0000 C   0  0  0  0  0  0  0  0  0  0  0  0
    3.0430   -8.5670    0.0000 C   0  0  0  0  0  0  0  0  0  0  0  0
  1  2  1  0  0  0  0
  1  3  1  0  0  0  0
  1  4  2  0  0  0  0
  2  9  1  0  0  0  0
  2 13  1  0  0  0  0
  3  5  2  0  0  0  0
  3  8  1  0  0  0  0
  4  7  1  0  0  0  0
  5 10  1  0  0  0  0
  6  7  1  0  0  0  0
  6  8  2  0  0  0  0
  6 12  1  0  0  0  0
  7 11  2  0  0  0  0
  9 10  1  0  0  0  0
  9 28  2  0  0  0  0
 10 29  2  0  0  0  0
 11 21  1  0  0  0  0
 12 16  1  0  0  0  0
 13 14  1  0  0  0  0
 13 15  2  0  0  0  0
 14 20  2  0  0  0  0
 15 19  1  0  0  0  0
 16 24  2  0  0  0  0
 16 25  1  0  0  0  0
 17 19  2  0  0  0  0
 17 20  1  0  0  0  0
 17 22  1  0  0  0  0
 18 23  1  0  0  0  0
 18 26  2  0  0  0  0
 18 27  1  0  0  0  0
 21 30  1  0  0  0  0
 21 31  1  0  0  0  0
 24 26  1  0  0  0  0
 25 27  2  0  0  0  0
 28 32  1  0  0  0  0
 29 33  1  0  0  0  0
 32 33  2  0  0  0  0
M  END
>  <DATABASE_ID>
DB00845

>  <DATABASE_NAME>
drugbank

>  <SMILES>
Clc1ccc(N2C3=CC(=NC(C)C)C(Nc4ccc(Cl)cc4)=CC3=Nc3c2cccc3)cc1

>  <INCHI_IDENTIFIER>
InChI=1S/C27H22Cl2N4/c1-17(2)30-24-16-27-25(15-23(24)31-20-11-7-18(28)8-12-20)32-22-5-3-4-6-26(22)33(27)21-13-9-19(29)10-14-21/h3-17,31H,1-2H3/b30-24+

>  <INCHI_KEY>
InChIKey=WDQPAMHFFCXSNU-BGABXYSRSA-N

>  <JCHEM_ACCEPTOR_COUNT>
4

>  <JCHEM_AVERAGE_POLARIZABILITY>
51.515728

>  <JCHEM_BIOAVAILABILITY>
1

>  <JCHEM_DONOR_COUNT>
1

>  <JCHEM_EXACT_MASS>
472.12216

>  <JCHEM_FORMAL_CHARGE>
0

>  <JCHEM_FORMULA>
C27H22Cl2N4

>  <JCHEM_GHOSE_FILTER>
0

>  <JCHEM_IUPAC>
N,5-bis(4-chlorophenyl)-3-[(propan-2-yl)imino]-3,5-dihydrophenazin-2-amine

>  <ALOGPS_LOGP>
7.3899999

>  <JCHEM_LOGP>
7.3043151

>  <ALOGPS_LOGS>
-5.5

>  <JCHEM_MASS>
473.396

>  <JCHEM_MDDR_LIKE_RULE>
0

>  <JCHEM_NUMBER_OF_RINGS>
5

>  <JCHEM_PHYSIOLOGICAL_CHARGE>
1

>  <JCHEM_PKA_STRONGEST_ACIDIC>
16.154114

>  <JCHEM_PKA_STRONGEST_BASIC>
9.2889357

>  <JCHEM_POLAR_SURFACE_AREA>
39.990002

>  <JCHEM_REFRACTIVITY>
142.55209

>  <JCHEM_ROTATABLE_BOND_COUNT>
4

>  <JCHEM_RULE_OF_FIVE>
0

>  <ALOGPS_SOLUBILITY>
1.51e-03 g/l

>  <JCHEM_TRADITIONAL_IUPAC>
clofazimine

>  <JCHEM_VEBER_RULE>
1

>  <DRUGBANK_ID>
DB00845

>  <DRUG_GROUPS>
approved; investigational

>  <GENERIC_NAME>
Clofazimine

>  <SYNONYMS>
Clofazimin; Clofazimina; Clofazimine; Clofaziminum; Riminophenazine

>  <BRANDS>
Clofozine; Hansepran; Lamcoin; Lampren; Lamprène; Lamprene

$$$$
Cysteamine
 OpenBabel02121510022D

  4  3  0  0  0  0  0  0  0  0999 V2000
    4.2370    0.4620    0.0000 S   0  0  0  0  0  0  0  0  0  0  0  0
    2.0930    0.0500    0.0000 N   0  0  0  0  0  0  0  0  0  0  0  0
    2.8080    0.4620    0.0000 C   0  0  0  0  0  0  0  0  0  0  0  0
    3.5220    0.0500    0.0000 C   0  0  0  0  0  0  0  0  0  0  0  0
  1  4  1  0  0  0  0
  2  3  1  0  0  0  0
  3  4  1  0  0  0  0
M  END
>  <DATABASE_ID>
DB00847

>  <DATABASE_NAME>
drugbank

>  <SMILES>
SCCN

>  <INCHI_IDENTIFIER>
InChI=1S/C2H7NS/c3-1-2-4/h4H,1-3H2

>  <INCHI_KEY>
InChIKey=UFULAYFCSOUIOV-UHFFFAOYSA-N

>  <JCHEM_ACCEPTOR_COUNT>
1

>  <JCHEM_AVERAGE_POLARIZABILITY>
8.6510563

>  <JCHEM_BIOAVAILABILITY>
1

>  <JCHEM_DONOR_COUNT>
2

>  <JCHEM_EXACT_MASS>
77.029922

>  <JCHEM_FORMAL_CHARGE>
0

>  <JCHEM_FORMULA>
C2H7NS

>  <JCHEM_GHOSE_FILTER>
0

>  <JCHEM_IUPAC>
2-aminoethane-1-thiol

>  <ALOGPS_LOGP>
0.0099999998

>  <JCHEM_LOGP>
-0.41661316

>  <ALOGPS_LOGS>
-0.51999998

>  <JCHEM_MASS>
77.149002

>  <JCHEM_MDDR_LIKE_RULE>
0

>  <JCHEM_NUMBER_OF_RINGS>
0

>  <JCHEM_PHYSIOLOGICAL_CHARGE>
1

>  <JCHEM_PKA_STRONGEST_ACIDIC>
9.4229403

>  <JCHEM_PKA_STRONGEST_BASIC>
10.398578

>  <JCHEM_POLAR_SURFACE_AREA>
26.02

>  <JCHEM_REFRACTIVITY>
22.3937

>  <JCHEM_ROTATABLE_BOND_COUNT>
1

>  <JCHEM_RULE_OF_FIVE>
1

>  <ALOGPS_SOLUBILITY>
2.35e+01 g/l

>  <JCHEM_TRADITIONAL_IUPAC>
cysteamine

>  <JCHEM_VEBER_RULE>
1

>  <DRUGBANK_ID>
DB00847

>  <DRUG_GROUPS>
approved; investigational

>  <GENERIC_NAME>
Cysteamine

>  <SYNONYMS>
2-Amino-1-ethanethiol; 2-Aminoethanethiol; beta-Aminoethanethiol; beta-Mercaptoethylamine; MEA; Thioethanolamine; β-aminoethylthiol; β-MEA

>  <BRANDS>
Cystagon; Cystaran; Procysbi

>  <SALTS>
Cysteamine Bitartrate; Cysteamine Hydrochloride

$$$$
Methylphenobarbital
 OpenBabel02121510022D

 18 19  0  0  1  0  0  0  0  0999 V2000
    1.6500    0.1660    0.0000 O   0  0  0  0  0  0  0  0  0  0  0  0
    4.5080    0.1660    0.0000 O   0  0  0  0  0  0  0  0  0  0  0  0
    3.0790   -2.3090    0.0000 O   0  0  0  0  0  0  0  0  0  0  0  0
    2.3640   -1.0720    0.0000 N   0  0  0  0  0  0  0  0  0  0  0  0
    3.7940   -1.0720    0.0000 N   0  0  0  0  0  0  0  0  0  0  0  0
    3.0790    0.1660    0.0000 C   0  0  3  0  0  0  0  0  0  0  0  0
    2.6660    0.8800    0.0000 C   0  0  0  0  0  0  0  0  0  0  0  0
    3.4920    0.8800    0.0000 C   0  0  0  0  0  0  0  0  0  0  0  0
    2.3640   -0.2470    0.0000 C   0  0  0  0  0  0  0  0  0  0  0  0
    3.7940   -0.2470    0.0000 C   0  0  0  0  0  0  0  0  0  0  0  0
    1.8420    0.8800    0.0000 C   0  0  0  0  0  0  0  0  0  0  0  0
    3.0790   -1.4840    0.0000 C   0  0  0  0  0  0  0  0  0  0  0  0
    3.0790    1.5950    0.0000 C   0  0  0  0  0  0  0  0  0  0  0  0
    4.3170    0.8800    0.0000 C   0  0  0  0  0  0  0  0  0  0  0  0
    1.6500   -1.4840    0.0000 C   0  0  0  0  0  0  0  0  0  0  0  0
    3.4920    2.3090    0.0000 C   0  0  0  0  0  0  0  0  0  0  0  0
    4.7290    1.5950    0.0000 C   0  0  0  0  0  0  0  0  0  0  0  0
    4.3170    2.3090    0.0000 C   0  0  0  0  0  0  0  0  0  0  0  0
  1  9  2  0  0  0  0
  2 10  2  0  0  0  0
  3 12  2  0  0  0  0
  4  9  1  0  0  0  0
  4 12  1  0  0  0  0
  4 15  1  0  0  0  0
  5 10  1  0  0  0  0
  5 12  1  0  0  0  0
  6  7  1  0  0  0  0
  6  8  1  0  0  0  0
  6  9  1  0  0  0  0
  6 10  1  0  0  0  0
  7 11  1  0  0  0  0
  8 13  2  0  0  0  0
  8 14  1  0  0  0  0
 13 16  1  0  0  0  0
 14 17  2  0  0  0  0
 16 18  2  0  0  0  0
 17 18  1  0  0  0  0
M  END
>  <DATABASE_ID>
DB00849

>  <DATABASE_NAME>
drugbank

>  <SMILES>
O=C1N(C)C(=O)NC(=O)C1(CC)c1ccccc1

>  <INCHI_IDENTIFIER>
InChI=1S/C13H14N2O3/c1-3-13(9-7-5-4-6-8-9)10(16)14-12(18)15(2)11(13)17/h4-8H,3H2,1-2H3,(H,14,16,18)

>  <INCHI_KEY>
InChIKey=ALARQZQTBTVLJV-UHFFFAOYSA-N

>  <JCHEM_ACCEPTOR_COUNT>
3

>  <JCHEM_AVERAGE_POLARIZABILITY>
24.616091

>  <JCHEM_BIOAVAILABILITY>
1

>  <JCHEM_DONOR_COUNT>
1

>  <JCHEM_EXACT_MASS>
246.10045

>  <JCHEM_FORMAL_CHARGE>
0

>  <JCHEM_FORMULA>
C13H14N2O3

>  <JCHEM_GHOSE_FILTER>
1

>  <JCHEM_IUPAC>
5-ethyl-1-methyl-5-phenyl-1,3-diazinane-2,4,6-trione

>  <ALOGPS_LOGP>
1.95

>  <JCHEM_LOGP>
1.6300062

>  <ALOGPS_LOGS>
-2.54

>  <JCHEM_MASS>
246.2619

>  <JCHEM_MDDR_LIKE_RULE>
0

>  <JCHEM_NUMBER_OF_RINGS>
2

>  <JCHEM_PHYSIOLOGICAL_CHARGE>
0

>  <JCHEM_PKA_STRONGEST_ACIDIC>
8.3990049

>  <JCHEM_POLAR_SURFACE_AREA>
66.480003

>  <JCHEM_REFRACTIVITY>
64.642998

>  <JCHEM_ROTATABLE_BOND_COUNT>
2

>  <JCHEM_RULE_OF_FIVE>
1

>  <ALOGPS_SOLUBILITY>
7.10e-01 g/l

>  <JCHEM_TRADITIONAL_IUPAC>
mephobarbital

>  <JCHEM_VEBER_RULE>
0

>  <DRUGBANK_ID>
DB00849

>  <DRUG_GROUPS>
approved

>  <GENERIC_NAME>
Methylphenobarbital

>  <SYNONYMS>
Enphenemal; Mephobarbital; Mephobarbitone; Méthylphénobarbital; Methylphenobarbital; Methylphenobarbitalum; Methylphenobarbitone; Metilfenobarbital

>  <BRANDS>
Mebaral; Mephyltaletten; Phemiton; Phemitone; Phenmiton; Prominal

$$$$
Perphenazine
 OpenBabel02121510022D

 27 30  0  0  1  0  0  0  0  0999 V2000
    8.8480   -1.8710    0.0000 Cl  0  0  0  0  0  0  0  0  0  0  0  0
    5.9360   -3.5410    0.0000 S   0  0  0  0  0  0  0  0  0  0  0  0
    1.6500    3.0580    0.0000 O   0  0  0  0  0  0  0  0  0  0  0  0
    4.5070    0.5830    0.0000 N   0  0  0  0  0  0  0  0  0  0  0  0
    3.0790    1.4080    0.0000 N   0  0  0  0  0  0  0  0  0  0  0  0
    5.9360   -1.8910    0.0000 N   0  0  0  0  0  0  0  0  0  0  0  0
    3.7930    0.1710    0.0000 C   0  0  0  0  0  0  0  0  0  0  0  0
    4.5070    1.4080    0.0000 C   0  0  0  0  0  0  0  0  0  0  0  0
    3.0790    0.5830    0.0000 C   0  0  0  0  0  0  0  0  0  0  0  0
    3.7930    1.8210    0.0000 C   0  0  0  0  0  0  0  0  0  0  0  0
    5.2220    0.1710    0.0000 C   0  0  0  0  0  0  0  0  0  0  0  0
    5.2220   -0.6540    0.0000 C   0  0  0  0  0  0  0  0  0  0  0  0
    2.3640    1.8210    0.0000 C   0  0  0  0  0  0  0  0  0  0  0  0
    5.9360   -1.0660    0.0000 C   0  0  0  0  0  0  0  0  0  0  0  0
    2.3640    2.6460    0.0000 C   0  0  0  0  0  0  0  0  0  0  0  0
    6.6500   -2.3040    0.0000 C   0  0  0  0  0  0  0  0  0  0  0  0
    5.2220   -2.3040    0.0000 C   0  0  0  0  0  0  0  0  0  0  0  0
    6.6500   -3.1290    0.0000 C   0  0  0  0  0  0  0  0  0  0  0  0
    5.2220   -3.1290    0.0000 C   0  0  0  0  0  0  0  0  0  0  0  0
    7.3880   -1.8630    0.0000 C   0  0  0  0  0  0  0  0  0  0  0  0
    4.4840   -1.8630    0.0000 C   0  0  0  0  0  0  0  0  0  0  0  0
    7.3880   -3.5700    0.0000 C   0  0  0  0  0  0  0  0  0  0  0  0
    4.4840   -3.5700    0.0000 C   0  0  0  0  0  0  0  0  0  0  0  0
    8.1350   -2.2860    0.0000 C   0  0  0  0  0  0  0  0  0  0  0  0
    3.7370   -2.2860    0.0000 C   0  0  0  0  0  0  0  0  0  0  0  0
    8.1350   -3.1460    0.0000 C   0  0  0  0  0  0  0  0  0  0  0  0
    3.7370   -3.1460    0.0000 C   0  0  0  0  0  0  0  0  0  0  0  0
  1 24  1  0  0  0  0
  2 18  1  0  0  0  0
  2 19  1  0  0  0  0
  3 15  1  0  0  0  0
  4  7  1  0  0  0  0
  4  8  1  0  0  0  0
  4 11  1  0  0  0  0
  5  9  1  0  0  0  0
  5 10  1  0  0  0  0
  5 13  1  0  0  0  0
  6 14  1  0  0  0  0
  6 16  1  0  0  0  0
  6 17  1  0  0  0  0
  7  9  1  0  0  0  0
  8 10  1  0  0  0  0
 11 12  1  0  0  0  0
 12 14  1  0  0  0  0
 13 15  1  0  0  0  0
 16 18  2  0  0  0  0
 16 20  1  0  0  0  0
 17 19  2  0  0  0  0
 17 21  1  0  0  0  0
 18 22  1  0  0  0  0
 19 23  1  0  0  0  0
 20 24  2  0  0  0  0
 21 25  2  0  0  0  0
 22 26  2  0  0  0  0
 23 27  2  0  0  0  0
 24 26  1  0  0  0  0
 25 27  1  0  0  0  0
M  END
>  <DATABASE_ID>
DB00850

>  <DATABASE_NAME>
drugbank

>  <SMILES>
Clc1cc2N(c3c(Sc2cc1)cccc3)CCCN1CCN(CC1)CCO

>  <INCHI_IDENTIFIER>
InChI=1S/C21H26ClN3OS/c22-17-6-7-21-19(16-17)25(18-4-1-2-5-20(18)27-21)9-3-8-23-10-12-24(13-11-23)14-15-26/h1-2,4-7,16,26H,3,8-15H2

>  <INCHI_KEY>
InChIKey=RGCVKNLCSQQDEP-UHFFFAOYSA-N

>  <JCHEM_ACCEPTOR_COUNT>
4

>  <JCHEM_AVERAGE_POLARIZABILITY>
44.775002

>  <JCHEM_BIOAVAILABILITY>
1

>  <JCHEM_DONOR_COUNT>
1

>  <JCHEM_EXACT_MASS>
403.1485

>  <JCHEM_FORMAL_CHARGE>
0

>  <JCHEM_FORMULA>
C21H26ClN3OS

>  <JCHEM_GHOSE_FILTER>
1

>  <JCHEM_IUPAC>
2-{4-[3-(2-chloro-10H-phenothiazin-10-yl)propyl]piperazin-1-yl}ethan-1-ol

>  <ALOGPS_LOGP>
4.1500001

>  <JCHEM_LOGP>
3.6920178

>  <ALOGPS_LOGS>
-4.23

>  <JCHEM_MASS>
403.96899

>  <JCHEM_MDDR_LIKE_RULE>
1

>  <JCHEM_NUMBER_OF_RINGS>
4

>  <JCHEM_PHYSIOLOGICAL_CHARGE>
1

>  <JCHEM_PKA_STRONGEST_ACIDIC>
15.593098

>  <JCHEM_PKA_STRONGEST_BASIC>
8.2109003

>  <JCHEM_POLAR_SURFACE_AREA>
29.950001

>  <JCHEM_REFRACTIVITY>
116.0987

>  <JCHEM_ROTATABLE_BOND_COUNT>
6

>  <JCHEM_RULE_OF_FIVE>
1

>  <ALOGPS_SOLUBILITY>
2.37e-02 g/l

>  <JCHEM_TRADITIONAL_IUPAC>
perphenazine

>  <JCHEM_VEBER_RULE>
1

>  <DRUGBANK_ID>
DB00850

>  <DRUG_GROUPS>
approved

>  <GENERIC_NAME>
Perphenazine

>  <SYNONYMS>
Etaperazin; Etaperazine; Ethaperazine; Perfenazina; Perphenazin; Perphénazine

>  <BRANDS>
Decentan; Emesinal; Fentazin; Perphenan; PZC; Trilafon; Trilifan

>  <SALTS>
Perphenazine enanthate; Perphenazine heptanoate

$$$$
Pseudoephedrine
 OpenBabel02121510022D

 12 12  0  0  1  0  0  0  0  0999 V2000
    1.6500    0.8250    0.0000 O   0  0  0  0  0  0  0  0  0  0  0  0
    3.0790    1.6500    0.0000 N   0  0  0  0  0  0  0  0  0  0  0  0
    3.0790    0.8250    0.0000 C   0  0  2  0  0  0  0  0  0  0  0  0
    2.3640    0.4120    0.0000 C   0  0  2  0  0  0  0  0  0  0  0  0
    2.3640   -0.4120    0.0000 C   0  0  0  0  0  0  0  0  0  0  0  0
    3.7940    0.4120    0.0000 C   0  0  0  0  0  0  0  0  0  0  0  0
    3.0790   -0.8250    0.0000 C   0  0  0  0  0  0  0  0  0  0  0  0
    1.6500   -0.8250    0.0000 C   0  0  0  0  0  0  0  0  0  0  0  0
    3.7940    2.0620    0.0000 C   0  0  0  0  0  0  0  0  0  0  0  0
    3.0790   -1.6500    0.0000 C   0  0  0  0  0  0  0  0  0  0  0  0
    1.6500   -1.6500    0.0000 C   0  0  0  0  0  0  0  0  0  0  0  0
    2.3640   -2.0620    0.0000 C   0  0  0  0  0  0  0  0  0  0  0  0
  2  9  1  0  0  0  0
  3  2  1  1  0  0  0
  3  4  1  0  0  0  0
  3  6  1  0  0  0  0
  4  1  1  6  0  0  0
  4  5  1  0  0  0  0
  5  7  2  0  0  0  0
  5  8  1  0  0  0  0
  7 10  1  0  0  0  0
  8 11  2  0  0  0  0
 10 12  2  0  0  0  0
 11 12  1  0  0  0  0
M  END
>  <DATABASE_ID>
DB00852

>  <DATABASE_NAME>
drugbank

>  <SMILES>
O[C@H]([C@@H](NC)C)c1ccccc1

>  <INCHI_IDENTIFIER>
InChI=1S/C10H15NO/c1-8(11-2)10(12)9-6-4-3-5-7-9/h3-8,10-12H,1-2H3/t8-,10+/m0/s1

>  <INCHI_KEY>
InChIKey=KWGRBVOPPLSCSI-WCBMZHEXSA-N

>  <JCHEM_ACCEPTOR_COUNT>
2

>  <JCHEM_AVERAGE_POLARIZABILITY>
18.826538

>  <JCHEM_BIOAVAILABILITY>
1

>  <JCHEM_DONOR_COUNT>
2

>  <JCHEM_EXACT_MASS>
165.11537

>  <JCHEM_FORMAL_CHARGE>
0

>  <JCHEM_FORMULA>
C10H15NO

>  <JCHEM_GHOSE_FILTER>
1

>  <JCHEM_IUPAC>
(1S,2S)-2-(methylamino)-1-phenylpropan-1-ol

>  <ALOGPS_LOGP>
1

>  <JCHEM_LOGP>
1.3178347

>  <ALOGPS_LOGS>
-1.3

>  <JCHEM_MASS>
165.23219

>  <JCHEM_MDDR_LIKE_RULE>
0

>  <JCHEM_NUMBER_OF_RINGS>
1

>  <JCHEM_PHYSIOLOGICAL_CHARGE>
1

>  <JCHEM_PKA_STRONGEST_ACIDIC>
13.889531

>  <JCHEM_PKA_STRONGEST_BASIC>
9.524909

>  <JCHEM_POLAR_SURFACE_AREA>
32.259998

>  <JCHEM_REFRACTIVITY>
49.687302

>  <JCHEM_ROTATABLE_BOND_COUNT>
3

>  <JCHEM_RULE_OF_FIVE>
1

>  <ALOGPS_SOLUBILITY>
8.26e+00 g/l

>  <JCHEM_TRADITIONAL_IUPAC>
pseudoephedrine

>  <JCHEM_VEBER_RULE>
1

>  <DRUGBANK_ID>
DB00852

>  <DRUG_GROUPS>
approved

>  <GENERIC_NAME>
Pseudoephedrine

>  <BRANDS>
Afrinol; Benylin Decongestant; Cenafed; Decofed; Dimetapp Decongestant; Eltor 120; Genaphed; Maxenal; Myfedrine; Robidrine; Sudafed Decongestant

>  <SALTS>
Pseudoephedrine hydrochloride; Pseudoephedrine sulfate

$$$$
Temozolomide
 OpenBabel02121510022D

 14 15  0  0  0  0  0  0  0  0999 V2000
    3.0790    1.8770    0.0000 O   0  0  0  0  0  0  0  0  0  0  0  0
    4.2800   -1.8350    0.0000 O   0  0  0  0  0  0  0  0  0  0  0  0
    3.7940    0.6400    0.0000 N   0  0  0  0  0  0  0  0  0  0  0  0
    2.3640    0.6400    0.0000 N   0  0  0  0  0  0  0  0  0  0  0  0
    5.0560    0.2270    0.0000 N   0  0  0  0  0  0  0  0  0  0  0  0
    3.0790   -0.5980    0.0000 N   0  0  0  0  0  0  0  0  0  0  0  0
    2.3640   -0.1850    0.0000 N   0  0  0  0  0  0  0  0  0  0  0  0
    5.6380   -1.3910    0.0000 N   0  0  0  0  0  0  0  0  0  0  0  0
    3.7940   -0.1850    0.0000 C   0  0  0  0  0  0  0  0  0  0  0  0
    4.5740   -0.4370    0.0000 C   0  0  0  0  0  0  0  0  0  0  0  0
    3.0790    1.0520    0.0000 C   0  0  0  0  0  0  0  0  0  0  0  0
    4.5740    0.8910    0.0000 C   0  0  0  0  0  0  0  0  0  0  0  0
    1.6500    1.0520    0.0000 C   0  0  0  0  0  0  0  0  0  0  0  0
    4.8300   -1.2210    0.0000 C   0  0  0  0  0  0  0  0  0  0  0  0
  1 11  2  0  0  0  0
  2 14  2  0  0  0  0
  3  9  1  0  0  0  0
  3 11  1  0  0  0  0
  3 12  1  0  0  0  0
  4  7  1  0  0  0  0
  4 11  1  0  0  0  0
  4 13  1  0  0  0  0
  5 10  1  0  0  0  0
  5 12  2  0  0  0  0
  6  7  2  0  0  0  0
  6  9  1  0  0  0  0
  8 14  1  0  0  0  0
  9 10  2  0  0  0  0
 10 14  1  0  0  0  0
M  END
>  <DATABASE_ID>
DB00853

>  <DATABASE_NAME>
drugbank

>  <SMILES>
O=C1n2c(N=NN1C)c(nc2)C(=O)N

>  <INCHI_IDENTIFIER>
InChI=1S/C6H6N6O2/c1-11-6(14)12-2-8-3(4(7)13)5(12)9-10-11/h2H,1H3,(H2,7,13)

>  <INCHI_KEY>
InChIKey=BPEGJWRSRHCHSN-UHFFFAOYSA-N

>  <JCHEM_ACCEPTOR_COUNT>
5

>  <JCHEM_AVERAGE_POLARIZABILITY>
16.875956

>  <JCHEM_BIOAVAILABILITY>
1

>  <JCHEM_DONOR_COUNT>
1

>  <JCHEM_EXACT_MASS>
194.05522

>  <JCHEM_FORMAL_CHARGE>
0

>  <JCHEM_FORMULA>
C6H6N6O2

>  <JCHEM_GHOSE_FILTER>
1

>  <JCHEM_IUPAC>
3-methyl-4-oxo-3H,4H-imidazo[4,3-d][1,2,3,5]tetrazine-8-carboxamide

>  <ALOGPS_LOGP>
-1

>  <JCHEM_LOGP>
-0.28253815

>  <ALOGPS_LOGS>
-1.58

>  <JCHEM_MASS>
194.1508

>  <JCHEM_MDDR_LIKE_RULE>
0

>  <JCHEM_NUMBER_OF_RINGS>
2

>  <JCHEM_PHYSIOLOGICAL_CHARGE>
0

>  <JCHEM_PKA_STRONGEST_ACIDIC>
10.51155

>  <JCHEM_PKA_STRONGEST_BASIC>
-3.6384783

>  <JCHEM_POLAR_SURFACE_AREA>
105.94

>  <JCHEM_REFRACTIVITY>
47.860901

>  <JCHEM_ROTATABLE_BOND_COUNT>
1

>  <JCHEM_RULE_OF_FIVE>
1

>  <ALOGPS_SOLUBILITY>
5.09e+00 g/l

>  <JCHEM_TRADITIONAL_IUPAC>
temozolomide

>  <JCHEM_VEBER_RULE>
0

>  <DRUGBANK_ID>
DB00853

>  <DRUG_GROUPS>
approved; investigational

>  <GENERIC_NAME>
Temozolomide

>  <SYNONYMS>
Temozolodida; Temozolomid; Témozolomide; Temozolomidum

>  <BRANDS>
Témodal; Temodal; Temodar

$$$$
Levorphanol
 OpenBabel02121510022D

 20 23  0  0  1  0  0  0  0  0999 V2000
    2.0100   -0.3760    0.0000 O   0  0  0  0  0  0  0  0  0  0  0  0
    4.9300    0.6940    0.0000 N   0  0  0  0  0  0  0  0  0  0  0  0
    4.8060   -0.3560    0.0000 C   0  0  2  0  0  0  0  0  0  0  0  0
    5.4920    0.0400    0.0000 C   0  0  2  0  0  0  0  0  0  0  0  0
    5.4920    0.8320    0.0000 C   0  0  2  0  0  0  0  0  0  0  0  0
    4.6460   -0.0630    0.0000 C   0  0  0  0  0  0  0  0  0  0  0  0
    4.7940   -1.1810    0.0000 C   0  0  0  0  0  0  0  0  0  0  0  0
    6.2130   -0.3620    0.0000 C   0  0  0  0  0  0  0  0  0  0  0  0
    4.1200    0.0400    0.0000 C   0  0  0  0  0  0  0  0  0  0  0  0
    4.8060    1.2280    0.0000 C   0  0  0  0  0  0  0  0  0  0  0  0
    4.5790    0.3880    0.0000 C   0  0  0  0  0  0  0  0  0  0  0  0
    5.5050   -1.5990    0.0000 C   0  0  0  0  0  0  0  0  0  0  0  0
    6.2200   -1.1870    0.0000 C   0  0  0  0  0  0  0  0  0  0  0  0
    4.1200    0.8320    0.0000 C   0  0  0  0  0  0  0  0  0  0  0  0
    3.4120   -0.3840    0.0000 C   0  0  0  0  0  0  0  0  0  0  0  0
    4.4930    1.1440    0.0000 C   0  0  0  0  0  0  0  0  0  0  0  0
    3.4120    1.2550    0.0000 C   0  0  0  0  0  0  0  0  0  0  0  0
    2.6950    0.0230    0.0000 C   0  0  0  0  0  0  0  0  0  0  0  0
    2.6950    0.8480    0.0000 C   0  0  0  0  0  0  0  0  0  0  0  0
    6.2070    0.4520    0.0000 H   0  0  0  0  0  0  0  0  0  0  0  0
  1 18  1  0  0  0  0
  2 11  1  0  0  0  0
  2 16  1  0  0  0  0
  3  4  1  0  0  0  0
  3  6  1  1  0  0  0
  3  7  1  0  0  0  0
  3  9  1  0  0  0  0
  4  5  1  0  0  0  0
  4  8  1  0  0  0  0
  4 20  1  1  0  0  0
  5  2  1  6  0  0  0
  5 10  1  0  0  0  0
  6 11  1  0  0  0  0
  7 12  1  0  0  0  0
  8 13  1  0  0  0  0
  9 14  1  0  0  0  0
  9 15  2  0  0  0  0
 10 14  1  0  0  0  0
 12 13  1  0  0  0  0
 14 17  2  0  0  0  0
 15 18  1  0  0  0  0
 17 19  1  0  0  0  0
 18 19  2  0  0  0  0
M  END
>  <DATABASE_ID>
DB00854

>  <DATABASE_NAME>
drugbank

>  <SMILES>
Oc1cc2[C@@]34[C@H]([C@H](N(CC3)C)Cc2cc1)CCCC4

>  <INCHI_IDENTIFIER>
InChI=1S/C17H23NO/c1-18-9-8-17-7-3-2-4-14(17)16(18)10-12-5-6-13(19)11-15(12)17/h5-6,11,14,16,19H,2-4,7-10H2,1H3/t14-,16+,17+/m0/s1

>  <INCHI_KEY>
InChIKey=JAQUASYNZVUNQP-USXIJHARSA-N

>  <JCHEM_ACCEPTOR_COUNT>
2

>  <JCHEM_AVERAGE_POLARIZABILITY>
29.835842

>  <JCHEM_BIOAVAILABILITY>
1

>  <JCHEM_DONOR_COUNT>
1

>  <JCHEM_EXACT_MASS>
257.17798

>  <JCHEM_FORMAL_CHARGE>
0

>  <JCHEM_FORMULA>
C17H23NO

>  <JCHEM_GHOSE_FILTER>
1

>  <JCHEM_IUPAC>
(1R,9R,10R)-17-methyl-17-azatetracyclo[7.5.3.0^{1,10}.0^{2,7}]heptadeca-2(7),3,5-trien-4-ol

>  <ALOGPS_LOGP>
3.29

>  <JCHEM_LOGP>
2.9030437

>  <ALOGPS_LOGS>
-3.1700001

>  <JCHEM_MASS>
257.37061

>  <JCHEM_MDDR_LIKE_RULE>
0

>  <JCHEM_NUMBER_OF_RINGS>
4

>  <JCHEM_PHYSIOLOGICAL_CHARGE>
1

>  <JCHEM_PKA_STRONGEST_ACIDIC>
10.461597

>  <JCHEM_PKA_STRONGEST_BASIC>
9.6558552

>  <JCHEM_POLAR_SURFACE_AREA>
23.469999

>  <JCHEM_REFRACTIVITY>
78.080902

>  <JCHEM_ROTATABLE_BOND_COUNT>
0

>  <JCHEM_RULE_OF_FIVE>
1

>  <ALOGPS_SOLUBILITY>
1.73e-01 g/l

>  <JCHEM_TRADITIONAL_IUPAC>
levorphanol

>  <JCHEM_VEBER_RULE>
1

>  <DRUGBANK_ID>
DB00854

>  <DRUG_GROUPS>
approved

>  <GENERIC_NAME>
Levorphanol

>  <SYNONYMS>
Levorfanol; Lévorphanol; Levorphanol; Levorphanolum

>  <BRANDS>
Levo-Dromoran

>  <SALTS>
Levorphanol tartrate

$$$$
Terbinafine
 OpenBabel02121510022D

 22 23  0  0  1  0  0  0  0  0999 V2000
    5.2220    0.5490    0.0000 N   0  0  0  0  0  0  0  0  0  0  0  0
    5.9370    0.9620    0.0000 C   0  0  0  0  0  0  0  0  0  0  0  0
    5.9370    1.7870    0.0000 C   0  0  0  0  0  0  0  0  0  0  0  0
    6.6520    2.1990    0.0000 C   0  0  0  0  0  0  0  0  0  0  0  0
    6.6520    3.0240    0.0000 C   0  0  0  0  0  0  0  0  0  0  0  0
    2.3640   -2.7510    0.0000 C   0  0  0  0  0  0  0  0  0  0  0  0
    5.2220   -0.2760    0.0000 C   0  0  0  0  0  0  0  0  0  0  0  0
    5.2220    2.1990    0.0000 C   0  0  0  0  0  0  0  0  0  0  0  0
    7.3890    1.7580    0.0000 C   0  0  0  0  0  0  0  0  0  0  0  0
    4.5080    0.9620    0.0000 C   0  0  0  0  0  0  0  0  0  0  0  0
    5.9370    3.4370    0.0000 C   0  0  0  0  0  0  0  0  0  0  0  0
    5.2220    3.0240    0.0000 C   0  0  0  0  0  0  0  0  0  0  0  0
    7.3890    3.4650    0.0000 C   0  0  0  0  0  0  0  0  0  0  0  0
    1.9520   -2.0360    0.0000 C   0  0  0  0  0  0  0  0  0  0  0  0
    2.7770   -3.4650    0.0000 C   0  0  0  0  0  0  0  0  0  0  0  0
    1.6500   -3.1630    0.0000 C   0  0  0  0  0  0  0  0  0  0  0  0
    4.5080   -0.6880    0.0000 C   0  0  0  0  0  0  0  0  0  0  0  0
    8.1360    2.1820    0.0000 C   0  0  0  0  0  0  0  0  0  0  0  0
    8.1360    3.0410    0.0000 C   0  0  0  0  0  0  0  0  0  0  0  0
    3.0790   -2.3380    0.0000 C   0  0  0  0  0  0  0  0  0  0  0  0
    4.5080   -1.5130    0.0000 C   0  0  0  0  0  0  0  0  0  0  0  0
    3.7940   -1.9260    0.0000 C   0  0  0  0  0  0  0  0  0  0  0  0
  1  2  1  0  0  0  0
  1  7  1  0  0  0  0
  1 10  1  0  0  0  0
  2  3  1  0  0  0  0
  3  4  1  0  0  0  0
  3  8  2  0  0  0  0
  4  5  1  0  0  0  0
  4  9  2  0  0  0  0
  5 11  1  0  0  0  0
  5 13  2  0  0  0  0
  6 14  1  0  0  0  0
  6 15  1  0  0  0  0
  6 16  1  0  0  0  0
  6 20  1  0  0  0  0
  7 17  1  0  0  0  0
  8 12  1  0  0  0  0
  9 18  1  0  0  0  0
 11 12  2  0  0  0  0
 13 19  1  0  0  0  0
 17 21  2  0  0  0  0
 18 19  2  0  0  0  0
 20 22  3  0  0  0  0
 21 22  1  0  0  0  0
M  END
>  <DATABASE_ID>
DB00857

>  <DATABASE_NAME>
drugbank

>  <SMILES>
N(Cc1c2c(ccc1)cccc2)(C\C=C\C#CC(C)(C)C)C

>  <INCHI_IDENTIFIER>
InChI=1S/C21H25N/c1-21(2,3)15-8-5-9-16-22(4)17-19-13-10-12-18-11-6-7-14-20(18)19/h5-7,9-14H,16-17H2,1-4H3/b9-5+

>  <INCHI_KEY>
InChIKey=DOMXUEMWDBAQBQ-WEVVVXLNSA-N

>  <JCHEM_ACCEPTOR_COUNT>
1

>  <JCHEM_AVERAGE_POLARIZABILITY>
35.826714

>  <JCHEM_BIOAVAILABILITY>
1

>  <JCHEM_DONOR_COUNT>
0

>  <JCHEM_EXACT_MASS>
291.1987

>  <JCHEM_FORMAL_CHARGE>
0

>  <JCHEM_FORMULA>
C21H25N

>  <JCHEM_GHOSE_FILTER>
1

>  <JCHEM_IUPAC>
[(2E)-6,6-dimethylhept-2-en-4-yn-1-yl](methyl)(naphthalen-1-ylmethyl)amine

>  <ALOGPS_LOGP>
5.5100002

>  <JCHEM_LOGP>
5.527483

>  <ALOGPS_LOGS>
-5.5999999

>  <JCHEM_MASS>
291.4299

>  <JCHEM_MDDR_LIKE_RULE>
0

>  <JCHEM_NUMBER_OF_RINGS>
2

>  <JCHEM_PHYSIOLOGICAL_CHARGE>
1

>  <JCHEM_PKA_STRONGEST_BASIC>
8.9432068

>  <JCHEM_POLAR_SURFACE_AREA>
3.24

>  <JCHEM_REFRACTIVITY>
98.075203

>  <JCHEM_ROTATABLE_BOND_COUNT>
6

>  <JCHEM_RULE_OF_FIVE>
0

>  <ALOGPS_SOLUBILITY>
7.38e-04 g/l

>  <JCHEM_TRADITIONAL_IUPAC>
terbinafine

>  <JCHEM_VEBER_RULE>
1

>  <DRUGBANK_ID>
DB00857

>  <DRUG_GROUPS>
approved; investigational

>  <GENERIC_NAME>
Terbinafine

>  <BRANDS>
Lamisil; Terbinex

>  <SALTS>
Terbinafine Hydrochloride

$$$$
Penicillamine
 OpenBabel02121510022D

  9  8  0  0  1  0  0  0  0  0999 V2000
    0.0000    0.0000    0.0000 C   0  0  3  0  0  0  0  0  0  0  0  0
    0.7140    0.4120    0.0000 C   0  0  0  0  0  0  0  0  0  0  0  0
   -0.7140    0.4120    0.0000 C   0  0  0  0  0  0  0  0  0  0  0  0
    1.4290    0.0000    0.0000 O   0  0  0  0  0  0  0  0  0  0  0  0
    0.0000   -0.8250    0.0000 N   0  0  0  0  0  0  0  0  0  0  0  0
   -0.7140    1.2380    0.0000 S   0  0  0  0  0  0  0  0  0  0  0  0
    0.7140    1.2380    0.0000 O   0  0  0  0  0  0  0  0  0  0  0  0
   -1.4290    0.0000    0.0000 C   0  0  0  0  0  0  0  0  0  0  0  0
   -1.4290    0.8250    0.0000 C   0  0  0  0  0  0  0  0  0  0  0  0
  1  2  1  0  0  0  0
  1  3  1  0  0  0  0
  1  5  1  0  0  0  0
  2  4  1  0  0  0  0
  2  7  2  0  0  0  0
  3  6  1  0  0  0  0
  3  8  1  0  0  0  0
  3  9  1  0  0  0  0
M  END
>  <DATABASE_ID>
DB00859

>  <DATABASE_NAME>
drugbank

>  <SMILES>
SC(C(N)C(O)=O)(C)C

>  <INCHI_IDENTIFIER>
InChI=1S/C5H11NO2S/c1-5(2,9)3(6)4(7)8/h3,9H,6H2,1-2H3,(H,7,8)

>  <INCHI_KEY>
InChIKey=VVNCNSJFMMFHPL-UHFFFAOYSA-N

>  <JCHEM_ACCEPTOR_COUNT>
3

>  <JCHEM_AVERAGE_POLARIZABILITY>
14.883644

>  <JCHEM_BIOAVAILABILITY>
1

>  <JCHEM_DONOR_COUNT>
3

>  <JCHEM_EXACT_MASS>
149.05106

>  <JCHEM_FORMAL_CHARGE>
0

>  <JCHEM_FORMULA>
C5H11NO2S

>  <JCHEM_GHOSE_FILTER>
0

>  <JCHEM_IUPAC>
2-amino-3-methyl-3-sulfanylbutanoic acid

>  <ALOGPS_LOGP>
-1.7

>  <JCHEM_LOGP>
-2.1465182

>  <ALOGPS_LOGS>
-1.51

>  <JCHEM_MASS>
149.211

>  <JCHEM_MDDR_LIKE_RULE>
0

>  <JCHEM_NUMBER_OF_RINGS>
0

>  <JCHEM_PHYSIOLOGICAL_CHARGE>
0

>  <JCHEM_PKA>
10.076558

>  <JCHEM_PKA_STRONGEST_ACIDIC>
2.555553

>  <JCHEM_PKA_STRONGEST_BASIC>
9.0936794

>  <JCHEM_POLAR_SURFACE_AREA>
63.32

>  <JCHEM_REFRACTIVITY>
37.224998

>  <JCHEM_ROTATABLE_BOND_COUNT>
2

>  <JCHEM_RULE_OF_FIVE>
1

>  <ALOGPS_SOLUBILITY>
4.65e+00 g/l

>  <JCHEM_TRADITIONAL_IUPAC>
(+-)-penicillamine

>  <JCHEM_VEBER_RULE>
0

>  <DRUGBANK_ID>
DB00859

>  <DRUG_GROUPS>
approved

>  <GENERIC_NAME>
Penicillamine

>  <SYNONYMS>
Penicilamina; Penicillamina; Pénicillamine; Pénicillamine; Penicillaminum; β-Mercaptovaline

>  <BRANDS>
Atamir; Cuprimine; Depen

$$$$
Prednisolone
 OpenBabel02121510022D

 29 32  0  0  1  0  0  0  0  0999 V2000
    6.6260    1.5370    0.0000 O   0  0  0  0  0  0  0  0  0  0  0  0
    3.9560    0.9130    0.0000 O   0  0  0  0  0  0  0  0  0  0  0  0
    7.4630    2.0560    0.0000 O   0  0  0  0  0  0  0  0  0  0  0  0
    8.9700    1.3820    0.0000 O   0  0  0  0  0  0  0  0  0  0  0  0
    1.6500   -2.0180    0.0000 O   0  0  0  0  0  0  0  0  0  0  0  0
    6.0990    0.5000    0.0000 C   0  0  1  0  0  0  0  0  0  0  0  0
    6.0990   -0.3250    0.0000 C   0  0  2  0  0  0  0  0  0  0  0  0
    5.3850   -0.7370    0.0000 C   0  0  1  0  0  0  0  0  0  0  0  0
    4.6700   -0.3250    0.0000 C   0  0  2  0  0  0  0  0  0  0  0  0
    6.8800    0.7520    0.0000 C   0  0  1  0  0  0  0  0  0  0  0  0
    5.3850    0.9130    0.0000 C   0  0  0  0  0  0  0  0  0  0  0  0
    6.8800   -0.5760    0.0000 C   0  0  0  0  0  0  0  0  0  0  0  0
    4.6700    0.5000    0.0000 C   0  0  2  0  0  0  0  0  0  0  0  0
    3.9200   -0.7430    0.0000 C   0  0  1  0  0  0  0  0  0  0  0  0
    7.3610    0.0880    0.0000 C   0  0  0  0  0  0  0  0  0  0  0  0
    5.3980   -1.5970    0.0000 C   0  0  0  0  0  0  0  0  0  0  0  0
    6.0990    1.3250    0.0000 C   0  0  0  0  0  0  0  0  0  0  0  0
    4.6570   -2.0320    0.0000 C   0  0  0  0  0  0  0  0  0  0  0  0
    3.9130   -1.6020    0.0000 C   0  0  0  0  0  0  0  0  0  0  0  0
    7.5480    1.2350    0.0000 C   0  0  0  0  0  0  0  0  0  0  0  0
    3.9260    0.0820    0.0000 C   0  0  0  0  0  0  0  0  0  0  0  0
    3.1550   -0.2780    0.0000 C   0  0  0  0  0  0  0  0  0  0  0  0
    3.1410   -2.0560    0.0000 C   0  0  0  0  0  0  0  0  0  0  0  0
    8.3010    0.8980    0.0000 C   0  0  0  0  0  0  0  0  0  0  0  0
    2.3730   -0.7130    0.0000 C   0  0  0  0  0  0  0  0  0  0  0  0
    2.3660   -1.6080    0.0000 C   0  0  0  0  0  0  0  0  0  0  0  0
    6.1690   -0.9810    0.0000 H   0  0  0  0  0  0  0  0  0  0  0  0
    5.9590   -1.0630    0.0000 H   0  0  0  0  0  0  0  0  0  0  0  0
    5.2420    0.0050    0.0000 H   0  0  0  0  0  0  0  0  0  0  0  0
  3 20  2  0  0  0  0
  4 24  1  0  0  0  0
  5 26  2  0  0  0  0
  6  7  1  0  0  0  0
  6 10  1  0  0  0  0
  6 11  1  0  0  0  0
  6 17  1  1  0  0  0
  7  8  1  0  0  0  0
  7 12  1  0  0  0  0
  7 27  1  6  0  0  0
  8  9  1  0  0  0  0
  8 16  1  0  0  0  0
  8 28  1  1  0  0  0
  9 13  1  0  0  0  0
  9 14  1  0  0  0  0
  9 29  1  6  0  0  0
 10  1  1  6  0  0  0
 10 15  1  0  0  0  0
 10 20  1  0  0  0  0
 11 13  1  0  0  0  0
 12 15  1  0  0  0  0
 13  2  1  1  0  0  0
 14 19  1  0  0  0  0
 14 21  1  1  0  0  0
 14 22  1  0  0  0  0
 16 18  1  0  0  0  0
 18 19  1  0  0  0  0
 19 23  2  0  0  0  0
 20 24  1  0  0  0  0
 22 25  2  0  0  0  0
 23 26  1  0  0  0  0
 25 26  1  0  0  0  0
M  END
>  <DATABASE_ID>
DB00860

>  <DATABASE_NAME>
drugbank

>  <SMILES>
O=C1C=C2CC[C@@H]3[C@@H]([C@]2(C=C1)C)[C@@H](O)C[C@]1([C@H]3CC[C@]1(O)C(=O)CO)C

>  <INCHI_IDENTIFIER>
InChI=1S/C21H28O5/c1-19-7-5-13(23)9-12(19)3-4-14-15-6-8-21(26,17(25)11-22)20(15,2)10-16(24)18(14)19/h5,7,9,14-16,18,22,24,26H,3-4,6,8,10-11H2,1-2H3/t14-,15-,16-,18+,19-,20-,21-/m0/s1

>  <INCHI_KEY>
InChIKey=OIGNJSKKLXVSLS-VWUMJDOOSA-N

>  <JCHEM_ACCEPTOR_COUNT>
5

>  <JCHEM_AVERAGE_POLARIZABILITY>
38.782471

>  <JCHEM_BIOAVAILABILITY>
1

>  <JCHEM_DONOR_COUNT>
3

>  <JCHEM_EXACT_MASS>
360.19366

>  <JCHEM_FORMAL_CHARGE>
0

>  <JCHEM_FORMULA>
C21H28O5

>  <JCHEM_GHOSE_FILTER>
1

>  <JCHEM_IUPAC>
(1S,2R,10S,11S,14R,15S,17S)-14,17-dihydroxy-14-(2-hydroxyacetyl)-2,15-dimethyltetracyclo[8.7.0.0^{2,7}.0^{11,15}]heptadeca-3,6-dien-5-one

>  <ALOGPS_LOGP>
1.66

>  <JCHEM_LOGP>
1.2729899

>  <ALOGPS_LOGS>
-3.1800001

>  <JCHEM_MASS>
360.444

>  <JCHEM_MDDR_LIKE_RULE>
0

>  <JCHEM_NUMBER_OF_RINGS>
4

>  <JCHEM_PHYSIOLOGICAL_CHARGE>
0

>  <JCHEM_PKA>
13.864333

>  <JCHEM_PKA_STRONGEST_ACIDIC>
12.584675

>  <JCHEM_PKA_STRONGEST_BASIC>
-2.8513436

>  <JCHEM_POLAR_SURFACE_AREA>
94.830002

>  <JCHEM_REFRACTIVITY>
98.493301

>  <JCHEM_ROTATABLE_BOND_COUNT>
2

>  <JCHEM_RULE_OF_FIVE>
1

>  <ALOGPS_SOLUBILITY>
2.39e-01 g/l

>  <JCHEM_TRADITIONAL_IUPAC>
prednisolone

>  <JCHEM_VEBER_RULE>
0

>  <DRUGBANK_ID>
DB00860

>  <DRUG_GROUPS>
approved

>  <GENERIC_NAME>
Prednisolone

>  <SYNONYMS>
delta-dehydrocortisol; delta-dehydrohydrocortisone; delta-hydrocortisone; Hydroretrocortine; Metacortandralone; PRDL; Prednisolona; Prednisolonum

>  <BRANDS>
Ak-Pred; Decortin H; Delta-Cortef; Deltacortril; Flo-Pred; Hydeltra; Hydeltra-TBA; Hydeltrasol; Inflamase; Key-Pred; Klismacort; Meticortelone; MILLIPRED; OMNIPRED; Orapred; Panafcortelone; Pediapred; Predonine; Prelone; Solone; Sterolone; Ultracortenol

>  <SALTS>
Predisolone Sodium Phosphate; Prednisolone Acetate; Prednisolone Tebutate

$$$$
Diflunisal
 OpenBabel02121510022D

 18 19  0  0  0  0  0  0  0  0999 V2000
    5.6660    0.5400    0.0000 F   0  0  0  0  0  0  0  0  0  0  0  0
    4.2360    3.0150    0.0000 F   0  0  0  0  0  0  0  0  0  0  0  0
    4.2360   -2.7600    0.0000 O   0  0  0  0  0  0  0  0  0  0  0  0
    2.0930   -1.5220    0.0000 O   0  0  0  0  0  0  0  0  0  0  0  0
    2.8080   -2.7600    0.0000 O   0  0  0  0  0  0  0  0  0  0  0  0
    4.2360   -0.2850    0.0000 C   0  0  0  0  0  0  0  0  0  0  0  0
    4.2360    0.5400    0.0000 C   0  0  0  0  0  0  0  0  0  0  0  0
    3.5220   -0.6970    0.0000 C   0  0  0  0  0  0  0  0  0  0  0  0
    4.9510   -0.6970    0.0000 C   0  0  0  0  0  0  0  0  0  0  0  0
    3.5220   -1.5220    0.0000 C   0  0  0  0  0  0  0  0  0  0  0  0
    4.9510    0.9530    0.0000 C   0  0  0  0  0  0  0  0  0  0  0  0
    3.5220    0.9530    0.0000 C   0  0  0  0  0  0  0  0  0  0  0  0
    4.2360   -1.9350    0.0000 C   0  0  0  0  0  0  0  0  0  0  0  0
    4.9510   -1.5220    0.0000 C   0  0  0  0  0  0  0  0  0  0  0  0
    4.9510    1.7780    0.0000 C   0  0  0  0  0  0  0  0  0  0  0  0
    3.5220    1.7780    0.0000 C   0  0  0  0  0  0  0  0  0  0  0  0
    4.2360    2.1900    0.0000 C   0  0  0  0  0  0  0  0  0  0  0  0
    2.8080   -1.9350    0.0000 C   0  0  0  0  0  0  0  0  0  0  0  0
  1 11  1  0  0  0  0
  2 17  1  0  0  0  0
  3 13  1  0  0  0  0
  4 18  1  0  0  0  0
  5 18  2  0  0  0  0
  6  7  1  0  0  0  0
  6  8  2  0  0  0  0
  6  9  1  0  0  0  0
  7 11  2  0  0  0  0
  7 12  1  0  0  0  0
  8 10  1  0  0  0  0
  9 14  2  0  0  0  0
 10 13  2  0  0  0  0
 10 18  1  0  0  0  0
 11 15  1  0  0  0  0
 12 16  2  0  0  0  0
 13 14  1  0  0  0  0
 15 17  2  0  0  0  0
 16 17  1  0  0  0  0
M  END
>  <DATABASE_ID>
DB00861

>  <DATABASE_NAME>
drugbank

>  <SMILES>
Fc1cc(F)ccc1-c1cc(C(O)=O)c(O)cc1

>  <INCHI_IDENTIFIER>
InChI=1S/C13H8F2O3/c14-8-2-3-9(11(15)6-8)7-1-4-12(16)10(5-7)13(17)18/h1-6,16H,(H,17,18)

>  <INCHI_KEY>
InChIKey=HUPFGZXOMWLGNK-UHFFFAOYSA-N

>  <JCHEM_ACCEPTOR_COUNT>
3

>  <JCHEM_AVERAGE_POLARIZABILITY>
22.288757

>  <JCHEM_BIOAVAILABILITY>
1

>  <JCHEM_DONOR_COUNT>
2

>  <JCHEM_EXACT_MASS>
250.04414

>  <JCHEM_FORMAL_CHARGE>
0

>  <JCHEM_FORMULA>
C13H8F2O3

>  <JCHEM_GHOSE_FILTER>
1

>  <JCHEM_IUPAC>
5-(2,4-difluorophenyl)-2-hydroxybenzoic acid

>  <ALOGPS_LOGP>
3.1099999

>  <JCHEM_LOGP>
3.9098926

>  <ALOGPS_LOGS>
-3.55

>  <JCHEM_MASS>
250.1976

>  <JCHEM_MDDR_LIKE_RULE>
0

>  <JCHEM_NUMBER_OF_RINGS>
2

>  <JCHEM_PHYSIOLOGICAL_CHARGE>
-1

>  <JCHEM_PKA>
12.677467

>  <JCHEM_PKA_STRONGEST_ACIDIC>
2.69049

>  <JCHEM_PKA_STRONGEST_BASIC>
-6.3069639

>  <JCHEM_POLAR_SURFACE_AREA>
57.529999

>  <JCHEM_REFRACTIVITY>
60.864101

>  <JCHEM_ROTATABLE_BOND_COUNT>
2

>  <JCHEM_RULE_OF_FIVE>
1

>  <ALOGPS_SOLUBILITY>
7.11e-02 g/l

>  <JCHEM_TRADITIONAL_IUPAC>
diflunisal

>  <JCHEM_VEBER_RULE>
0

>  <DRUGBANK_ID>
DB00861

>  <DRUG_GROUPS>
approved

>  <GENERIC_NAME>
Diflunisal

>  <SYNONYMS>
Diflunisal; Diflunisal; Diflunisal; Diflunisalum

>  <BRANDS>
Anton; Dolobid

$$$$
Vardenafil
 OpenBabel02121510022D

 34 37  0  0  0  0  0  0  0  0999 V2000
    5.2220   -0.4120    0.0000 S   0  0  0  0  0  0  0  0  0  0  0  0
    5.6350   -1.1270    0.0000 O   0  0  0  0  0  0  0  0  0  0  0  0
    4.8100    0.3020    0.0000 O   0  0  0  0  0  0  0  0  0  0  0  0
    8.0800    1.2380    0.0000 O   0  0  0  0  0  0  0  0  0  0  0  0
    8.7950   -2.4750    0.0000 O   0  0  0  0  0  0  0  0  0  0  0  0
    4.5080   -0.8250    0.0000 N   0  0  0  0  0  0  0  0  0  0  0  0
    3.0790   -1.6500    0.0000 N   0  0  0  0  0  0  0  0  0  0  0  0
    9.5090   -0.4120    0.0000 N   0  0  0  0  0  0  0  0  0  0  0  0
    8.7950    0.0000    0.0000 N   0  0  0  0  0  0  0  0  0  0  0  0
    8.0800   -1.2380    0.0000 N   0  0  0  0  0  0  0  0  0  0  0  0
   10.7720   -0.8250    0.0000 N   0  0  0  0  0  0  0  0  0  0  0  0
    3.7940   -0.4120    0.0000 C   0  0  0  0  0  0  0  0  0  0  0  0
    4.5080   -1.6500    0.0000 C   0  0  0  0  0  0  0  0  0  0  0  0
    3.0790   -0.8250    0.0000 C   0  0  0  0  0  0  0  0  0  0  0  0
    3.7940   -2.0620    0.0000 C   0  0  0  0  0  0  0  0  0  0  0  0
    2.3640   -2.0620    0.0000 C   0  0  0  0  0  0  0  0  0  0  0  0
    5.9370    0.0000    0.0000 C   0  0  0  0  0  0  0  0  0  0  0  0
    1.6500   -1.6500    0.0000 C   0  0  0  0  0  0  0  0  0  0  0  0
    6.6520   -0.4120    0.0000 C   0  0  0  0  0  0  0  0  0  0  0  0
    5.9370    0.8250    0.0000 C   0  0  0  0  0  0  0  0  0  0  0  0
    7.3660    0.0000    0.0000 C   0  0  0  0  0  0  0  0  0  0  0  0
    7.3660    0.8250    0.0000 C   0  0  0  0  0  0  0  0  0  0  0  0
    8.0800   -0.4120    0.0000 C   0  0  0  0  0  0  0  0  0  0  0  0
    6.6520    1.2380    0.0000 C   0  0  0  0  0  0  0  0  0  0  0  0
   10.2900   -0.1610    0.0000 C   0  0  0  0  0  0  0  0  0  0  0  0
    9.5090   -1.2380    0.0000 C   0  0  0  0  0  0  0  0  0  0  0  0
   10.5460    0.6230    0.0000 C   0  0  0  0  0  0  0  0  0  0  0  0
   10.2900   -1.4890    0.0000 C   0  0  0  0  0  0  0  0  0  0  0  0
    8.7950   -1.6500    0.0000 C   0  0  0  0  0  0  0  0  0  0  0  0
   11.3540    0.7930    0.0000 C   0  0  0  0  0  0  0  0  0  0  0  0
   10.5460   -2.2730    0.0000 C   0  0  0  0  0  0  0  0  0  0  0  0
   11.6100    1.5770    0.0000 C   0  0  0  0  0  0  0  0  0  0  0  0
    8.0800    2.0620    0.0000 C   0  0  0  0  0  0  0  0  0  0  0  0
    8.7950    2.4750    0.0000 C   0  0  0  0  0  0  0  0  0  0  0  0
  1  2  2  0  0  0  0
  1  3  2  0  0  0  0
  1  6  1  0  0  0  0
  1 17  1  0  0  0  0
  4 22  1  0  0  0  0
  4 33  1  0  0  0  0
  5 29  2  0  0  0  0
  6 12  1  0  0  0  0
  6 13  1  0  0  0  0
  7 14  1  0  0  0  0
  7 15  1  0  0  0  0
  7 16  1  0  0  0  0
  8  9  1  0  0  0  0
  8 25  1  0  0  0  0
  8 26  1  0  0  0  0
  9 23  1  0  0  0  0
 10 23  2  0  0  0  0
 10 29  1  0  0  0  0
 11 25  2  0  0  0  0
 11 28  1  0  0  0  0
 12 14  1  0  0  0  0
 13 15  1  0  0  0  0
 16 18  1  0  0  0  0
 17 19  2  0  0  0  0
 17 20  1  0  0  0  0
 19 21  1  0  0  0  0
 20 24  2  0  0  0  0
 21 22  2  0  0  0  0
 21 23  1  0  0  0  0
 22 24  1  0  0  0  0
 25 27  1  0  0  0  0
 26 28  2  0  0  0  0
 26 29  1  0  0  0  0
 27 30  1  0  0  0  0
 28 31  1  0  0  0  0
 30 32  1  0  0  0  0
 33 34  1  0  0  0  0
M  END
>  <DATABASE_ID>
DB00862

>  <DATABASE_NAME>
drugbank

>  <SMILES>
S(=O)(=O)(N1CCN(CC1)CC)c1cc(C2=NC(=O)c3n(N2)c(nc3C)CCC)c(OCC)cc1

>  <INCHI_IDENTIFIER>
InChI=1S/C23H32N6O4S/c1-5-8-20-24-16(4)21-23(30)25-22(26-29(20)21)18-15-17(9-10-19(18)33-7-3)34(31,32)28-13-11-27(6-2)12-14-28/h9-10,15H,5-8,11-14H2,1-4H3,(H,25,26,30)

>  <INCHI_KEY>
InChIKey=SECKRCOLJRRGGV-UHFFFAOYSA-N

>  <JCHEM_ACCEPTOR_COUNT>
8

>  <JCHEM_AVERAGE_POLARIZABILITY>
53.222176

>  <JCHEM_BIOAVAILABILITY>
1

>  <JCHEM_DONOR_COUNT>
1

>  <JCHEM_EXACT_MASS>
488.22058

>  <JCHEM_FORMAL_CHARGE>
0

>  <JCHEM_FORMULA>
C23H32N6O4S

>  <JCHEM_GHOSE_FILTER>
0

>  <JCHEM_IUPAC>
2-[2-ethoxy-5-(4-ethylpiperazine-1-sulfonyl)phenyl]-5-methyl-7-propyl-1H,4H-imidazo[4,3-f][1,2,4]triazin-4-one

>  <ALOGPS_LOGP>
2.1800001

>  <JCHEM_LOGP>
1.3251204

>  <ALOGPS_LOGS>
-3.1800001

>  <JCHEM_MASS>
488.603

>  <JCHEM_MDDR_LIKE_RULE>
1

>  <JCHEM_NUMBER_OF_RINGS>
4

>  <JCHEM_PHYSIOLOGICAL_CHARGE>
0

>  <JCHEM_PKA_STRONGEST_ACIDIC>
8.0073357

>  <JCHEM_PKA_STRONGEST_BASIC>
6.2073994

>  <JCHEM_POLAR_SURFACE_AREA>
109.13

>  <JCHEM_REFRACTIVITY>
142.7097

>  <JCHEM_ROTATABLE_BOND_COUNT>
7

>  <JCHEM_RULE_OF_FIVE>
1

>  <ALOGPS_SOLUBILITY>
3.25e-01 g/l

>  <JCHEM_TRADITIONAL_IUPAC>
vardenafil

>  <JCHEM_VEBER_RULE>
0

>  <DRUGBANK_ID>
DB00862

>  <DRUG_GROUPS>
approved

>  <GENERIC_NAME>
Vardenafil

>  <SYNONYMS>
Vardenafil; Vardénafil; Vardenafil; Vardenafilum

>  <BRANDS>
Levitra; Staxyn; Vivanza

>  <SALTS>
Vardenafil hydrochloride

$$$$
Ranitidine
 OpenBabel02121510022D

 21 21  0  0  0  0  0  0  0  0999 V2000
    6.6280   -0.5860    0.0000 S   0  0  0  0  0  0  0  0  0  0  0  0
    8.6930   -1.3680    0.0000 O   0  0  0  0  0  0  0  0  0  0  0  0
    1.6500    0.0510    0.0000 O   0  5  0  0  0  0  0  0  0  0  0  0
    2.6060    1.1130    0.0000 O   0  0  0  0  0  0  0  0  0  0  0  0
   10.7590   -0.5860    0.0000 N   0  0  0  0  0  0  0  0  0  0  0  0
    4.4460   -0.5440    0.0000 N   0  0  0  0  0  0  0  0  0  0  0  0
    4.0040    0.8160    0.0000 N   0  0  0  0  0  0  0  0  0  0  0  0
    2.4350    0.3060    0.0000 N   0  3  0  0  0  0  0  0  0  0  0  0
   10.1460   -1.1380    0.0000 C   0  0  0  0  0  0  0  0  0  0  0  0
    9.3610   -0.8830    0.0000 C   0  0  0  0  0  0  0  0  0  0  0  0
    8.0260   -0.8830    0.0000 C   0  0  0  0  0  0  0  0  0  0  0  0
    7.2410   -1.1380    0.0000 C   0  0  0  0  0  0  0  0  0  0  0  0
    9.1060   -0.0980    0.0000 C   0  0  0  0  0  0  0  0  0  0  0  0
    8.2810   -0.0980    0.0000 C   0  0  0  0  0  0  0  0  0  0  0  0
    5.8440   -0.8410    0.0000 C   0  0  0  0  0  0  0  0  0  0  0  0
    5.2300   -0.2880    0.0000 C   0  0  0  0  0  0  0  0  0  0  0  0
   10.5870    0.2210    0.0000 C   0  0  0  0  0  0  0  0  0  0  0  0
   11.5430   -0.8410    0.0000 C   0  0  0  0  0  0  0  0  0  0  0  0
    3.8330    0.0090    0.0000 C   0  0  0  0  0  0  0  0  0  0  0  0
    3.0480   -0.2460    0.0000 C   0  0  0  0  0  0  0  0  0  0  0  0
    3.3910    1.3680    0.0000 C   0  0  0  0  0  0  0  0  0  0  0  0
  1 12  1  0  0  0  0
  1 15  1  0  0  0  0
  2 10  1  0  0  0  0
  2 11  1  0  0  0  0
  3  8  1  0  0  0  0
  4  8  2  0  0  0  0
  5  9  1  0  0  0  0
  5 17  1  0  0  0  0
  5 18  1  0  0  0  0
  6 16  1  0  0  0  0
  6 19  1  0  0  0  0
  7 19  1  0  0  0  0
  7 21  1  0  0  0  0
  8 20  1  0  0  0  0
  9 10  1  0  0  0  0
 10 13  2  0  0  0  0
 11 12  1  0  0  0  0
 11 14  2  0  0  0  0
 13 14  1  0  0  0  0
 15 16  1  0  0  0  0
 19 20  2  0  0  0  0
M  CHG  2   3  -1   8   1
M  END
>  <DATABASE_ID>
DB00863

>  <DATABASE_NAME>
drugbank

>  <SMILES>
S(Cc1oc(cc1)CN(C)C)CCN\C(\NC)=C\[N+](=O)[O-]

>  <INCHI_IDENTIFIER>
InChI=1S/C13H22N4O3S/c1-14-13(9-17(18)19)15-6-7-21-10-12-5-4-11(20-12)8-16(2)3/h4-5,9,14-15H,6-8,10H2,1-3H3/b13-9+

>  <INCHI_KEY>
InChIKey=VMXUWOKSQNHOCA-UKTHLTGXSA-N

>  <JCHEM_ACCEPTOR_COUNT>
5

>  <JCHEM_AVERAGE_POLARIZABILITY>
33.57523

>  <JCHEM_BIOAVAILABILITY>
1

>  <JCHEM_DONOR_COUNT>
2

>  <JCHEM_EXACT_MASS>
314.14127

>  <JCHEM_FORMAL_CHARGE>
0

>  <JCHEM_FORMULA>
C13H22N4O3S

>  <JCHEM_GHOSE_FILTER>
1

>  <JCHEM_IUPAC>
dimethyl[(5-{[(2-{[(E)-1-(methylamino)-2-nitroethenyl]amino}ethyl)sulfanyl]methyl}furan-2-yl)methyl]amine

>  <ALOGPS_LOGP>
0.79000002

>  <JCHEM_LOGP>
0.98147845

>  <ALOGPS_LOGS>
-3.5999999

>  <JCHEM_MASS>
314.40399

>  <JCHEM_MDDR_LIKE_RULE>
0

>  <JCHEM_NUMBER_OF_RINGS>
1

>  <JCHEM_PHYSIOLOGICAL_CHARGE>
1

>  <JCHEM_PKA_STRONGEST_BASIC>
8.0808163

>  <JCHEM_POLAR_SURFACE_AREA>
86.260002

>  <JCHEM_REFRACTIVITY>
95.153

>  <JCHEM_ROTATABLE_BOND_COUNT>
10

>  <JCHEM_RULE_OF_FIVE>
1

>  <ALOGPS_SOLUBILITY>
7.95e-02 g/l

>  <JCHEM_TRADITIONAL_IUPAC>
ranitidine

>  <JCHEM_VEBER_RULE>
0

>  <DRUGBANK_ID>
DB00863

>  <DRUG_GROUPS>
approved

>  <GENERIC_NAME>
Ranitidine

>  <SYNONYMS>
RAN

>  <BRANDS>
Alquen; Gastrolav; Gastrosedol; Kuracid; Ptinolin; Raniberl; Ranicux; Ranidil; Ranidin; Ranidine; Ranidura; Ranigast; Raniplex; Ranisan; Ranitab; Ranitic; Ranitidin; Ranitin; Ranitine; Ranobel; Rantacid; Ranuber; Renatac; Sostril; Tanidina; Toriol; Ulcodin; Zandid; Zantac; Zantic

>  <SALTS>
Ranitidine Hydrochloride

$$$$
Tacrolimus
 OpenBabel02121510022D

 57 60  0  0  1  0  0  0  0  0999 V2000
   11.8740   -7.7490    0.0000 C   0  0  0  0  0  0  0  0  0  0  0  0
   11.8740   -6.9160    0.0000 C   0  0  0  0  0  0  0  0  0  0  0  0
   11.1660   -6.5000    0.0000 C   0  0  2  0  0  0  0  0  0  0  0  0
   11.1660   -5.6660    0.0000 C   0  0  0  0  0  0  0  0  0  0  0  0
   10.4160   -5.2500    0.0000 C   0  0  0  0  0  0  0  0  0  0  0  0
    9.7080   -5.6660    0.0000 C   0  0  2  0  0  0  0  0  0  0  0  0
    9.7080   -6.5000    0.0000 C   0  0  1  0  0  0  0  0  0  0  0  0
   10.4160   -6.9160    0.0000 C   0  0  0  0  0  0  0  0  0  0  0  0
    8.9990   -6.9160    0.0000 O   0  0  0  0  0  0  0  0  0  0  0  0
    8.9990   -5.2500    0.0000 O   0  0  0  0  0  0  0  0  0  0  0  0
    8.2910   -6.5000    0.0000 C   0  0  0  0  0  0  0  0  0  0  0  0
   12.5820   -8.1660    0.0000 C   0  0  2  0  0  0  0  0  0  0  0  0
   11.1660   -8.1660    0.0000 C   0  0  0  0  0  0  0  0  0  0  0  0
   13.2910   -7.7490    0.0000 C   0  0  1  0  0  0  0  0  0  0  0  0
   13.9990   -8.1660    0.0000 C   0  0  2  0  0  0  0  0  0  0  0  0
   13.9990   -8.9990    0.0000 C   0  0  0  0  0  0  0  0  0  0  0  0
   14.7910   -9.3330    0.0000 C   0  0  0  0  0  0  0  0  0  0  0  0
   15.1650  -10.1240    0.0000 C   0  0  1  0  0  0  0  0  0  0  0  0
   14.7490  -10.8740    0.0000 C   0  0  0  0  0  0  0  0  0  0  0  0
   13.9990  -11.2910    0.0000 C   0  0  0  0  0  0  0  0  0  0  0  0
   13.2910  -10.8740    0.0000 C   0  0  0  0  0  0  0  0  0  0  0  0
   13.9990  -12.1240    0.0000 C   0  0  0  0  0  0  0  0  0  0  0  0
   13.2910  -12.5410    0.0000 C   0  0  2  0  0  0  0  0  0  0  0  0
   12.5820  -12.1240    0.0000 C   0  0  0  0  0  0  0  0  0  0  0  0
   13.7070  -13.2490    0.0000 C   0  0  0  0  0  0  0  0  0  0  0  0
   13.1240  -13.8740    0.0000 C   0  0  1  0  0  0  0  0  0  0  0  0
   12.3320  -13.6660    0.0000 C   0  0  2  0  0  0  0  0  0  0  0  0
   11.7490  -14.2490    0.0000 C   0  0  2  0  0  0  0  0  0  0  0  0
   10.9580  -14.0410    0.0000 C   0  0  0  0  0  0  0  0  0  0  0  0
   10.7490  -13.2490    0.0000 C   0  0  2  0  0  0  0  0  0  0  0  0
   11.3320  -12.6660    0.0000 C   0  0  2  0  0  0  0  0  0  0  0  0
   12.1240  -12.8740    0.0000 O   0  0  0  0  0  0  0  0  0  0  0  0
   11.9570  -15.0400    0.0000 O   0  0  0  0  0  0  0  0  0  0  0  0
   13.3320  -14.6660    0.0000 O   0  0  0  0  0  0  0  0  0  0  0  0
   14.1240  -14.9160    0.0000 C   0  0  0  0  0  0  0  0  0  0  0  0
   11.3740  -15.6240    0.0000 C   0  0  0  0  0  0  0  0  0  0  0  0
   12.0410  -12.2910    0.0000 O   0  0  0  0  0  0  0  0  0  0  0  0
   10.9160  -11.9570    0.0000 C   0  0  0  0  0  0  0  0  0  0  0  0
   11.3320  -11.2080    0.0000 C   0  0  0  0  0  0  0  0  0  0  0  0
   10.9160  -10.4990    0.0000 N   0  0  0  0  0  0  0  0  0  0  0  0
   10.0830  -10.4990    0.0000 C   0  0  0  0  0  0  0  0  0  0  0  0
   11.3320   -9.7910    0.0000 C   0  0  1  0  0  0  0  0  0  0  0  0
   10.9160   -9.0410    0.0000 C   0  0  0  0  0  0  0  0  0  0  0  0
   10.0830   -9.0410    0.0000 C   0  0  0  0  0  0  0  0  0  0  0  0
    9.6660   -9.7490    0.0000 C   0  0  0  0  0  0  0  0  0  0  0  0
   12.1660  -11.1970    0.0000 O   0  0  0  0  0  0  0  0  0  0  0  0
   10.0830  -11.9680    0.0000 O   0  0  0  0  0  0  0  0  0  0  0  0
    9.9450  -13.0320    0.0000 C   0  0  0  0  0  0  0  0  0  0  0  0
   12.1660   -9.7910    0.0000 C   0  0  0  0  0  0  0  0  0  0  0  0
   12.5820  -10.5120    0.0000 O   0  0  0  0  0  0  0  0  0  0  0  0
   12.5820   -9.0690    0.0000 O   0  0  0  0  0  0  0  0  0  0  0  0
   13.2910   -6.9160    0.0000 C   0  0  0  0  0  0  0  0  0  0  0  0
   14.7220   -7.7520    0.0000 O   0  0  0  0  0  0  0  0  0  0  0  0
   15.4080   -8.8970    0.0000 O   0  0  0  0  0  0  0  0  0  0  0  0
   15.9980  -10.1510    0.0000 C   0  0  0  0  0  0  0  0  0  0  0  0
   16.4320   -9.4540    0.0000 C   0  0  0  0  0  0  0  0  0  0  0  0
   17.2480   -9.4390    0.0000 C   0  0  0  0  0  0  0  0  0  0  0  0
  1  2  2  0  0  0  0
  1 13  1  0  0  0  0
  3  2  1  1  0  0  0
  3  4  1  0  0  0  0
  3  8  1  0  0  0  0
  4  5  1  0  0  0  0
  5  6  1  0  0  0  0
  6  7  1  0  0  0  0
  6 10  1  6  0  0  0
  7  8  1  0  0  0  0
  7  9  1  1  0  0  0
  9 11  1  0  0  0  0
 12  1  1  6  0  0  0
 12 14  1  0  0  0  0
 12 51  1  0  0  0  0
 14 15  1  0  0  0  0
 14 52  1  6  0  0  0
 15 16  1  0  0  0  0
 15 53  1  1  0  0  0
 16 17  1  0  0  0  0
 17 18  1  0  0  0  0
 17 54  2  0  0  0  0
 18 19  1  0  0  0  0
 18 55  1  6  0  0  0
 19 20  2  0  0  0  0
 20 21  1  0  0  0  0
 20 22  1  0  0  0  0
 22 23  1  0  0  0  0
 23 24  1  1  0  0  0
 23 25  1  0  0  0  0
 25 26  1  0  0  0  0
 26 27  1  0  0  0  0
 26 34  1  6  0  0  0
 27 28  1  0  0  0  0
 27 32  1  6  0  0  0
 28 29  1  0  0  0  0
 28 33  1  1  0  0  0
 29 30  1  0  0  0  0
 30 31  1  0  0  0  0
 30 48  1  1  0  0  0
 31 32  1  0  0  0  0
 31 37  1  1  0  0  0
 31 38  1  0  0  0  0
 33 36  1  0  0  0  0
 34 35  1  0  0  0  0
 38 39  1  0  0  0  0
 38 47  2  0  0  0  0
 39 40  1  0  0  0  0
 39 46  2  0  0  0  0
 40 41  1  0  0  0  0
 41 45  1  0  0  0  0
 42 40  1  1  0  0  0
 42 43  1  0  0  0  0
 42 49  1  0  0  0  0
 43 44  1  0  0  0  0
 44 45  1  0  0  0  0
 49 50  2  0  0  0  0
 49 51  1  0  0  0  0
 55 56  1  0  0  0  0
 56 57  2  0  0  0  0
M  END
>  <DATABASE_ID>
DB00864

>  <DATABASE_NAME>
drugbank

>  <SMILES>
O1[C@H](/C(=C/[C@H]2C[C@@H](OC)[C@H](O)CC2)/C)[C@H](C)[C@@H](O)CC(=O)[C@@H](\C=C(\C[C@@H](C[C@H](OC)[C@H]2O[C@](O)([C@@H](C[C@@H]2OC)C)C(=O)C(=O)N2[C@@H](CCCC2)C1=O)C)/C)CC=C

>  <INCHI_IDENTIFIER>
InChI=1S/C44H69NO12/c1-10-13-31-19-25(2)18-26(3)20-37(54-8)40-38(55-9)22-28(5)44(52,57-40)41(49)42(50)45-17-12-11-14-32(45)43(51)56-39(29(6)34(47)24-35(31)48)27(4)21-30-15-16-33(46)36(23-30)53-7/h10,19,21,26,28-34,36-40,46-47,52H,1,11-18,20,22-24H2,2-9H3/b25-19+,27-21+/t26-,28+,29+,30-,31+,32-,33+,34-,36+,37-,38-,39+,40+,44+/m0/s1

>  <INCHI_KEY>
InChIKey=QJJXYPPXXYFBGM-LFZNUXCKSA-N

>  <JCHEM_ACCEPTOR_COUNT>
11

>  <JCHEM_AVERAGE_POLARIZABILITY>
87.414597

>  <JCHEM_BIOAVAILABILITY>
0

>  <JCHEM_DONOR_COUNT>
3

>  <JCHEM_EXACT_MASS>
803.48199

>  <JCHEM_FORMAL_CHARGE>
0

>  <JCHEM_FORMULA>
C44H69NO12

>  <JCHEM_GHOSE_FILTER>
0

>  <JCHEM_IUPAC>
(1R,9S,12S,13R,14S,17R,21S,23S,24R,25S,27R)-1,14-dihydroxy-12-[(1E)-1-[(1R,3R,4R)-4-hydroxy-3-methoxycyclohexyl]prop-1-en-2-yl]-23,25-dimethoxy-13,19,21,27-tetramethyl-17-(prop-2-en-1-yl)-11,28-dioxa-4-azatricyclo[22.3.1.0^{4,9}]octacos-18-ene-2,3,10,16-tetrone

>  <ALOGPS_LOGP>
3.1900001

>  <JCHEM_LOGP>
5.59412

>  <ALOGPS_LOGS>
-5.3000002

>  <JCHEM_MASS>
804.01819

>  <JCHEM_MDDR_LIKE_RULE>
1

>  <JCHEM_NUMBER_OF_RINGS>
4

>  <JCHEM_PHYSIOLOGICAL_CHARGE>
0

>  <JCHEM_PKA>
14.071408

>  <JCHEM_PKA_STRONGEST_ACIDIC>
9.9556007

>  <JCHEM_PKA_STRONGEST_BASIC>
-2.9370956

>  <JCHEM_POLAR_SURFACE_AREA>
178.36

>  <JCHEM_REFRACTIVITY>
215.6203

>  <JCHEM_ROTATABLE_BOND_COUNT>
7

>  <JCHEM_RULE_OF_FIVE>
0

>  <ALOGPS_SOLUBILITY>
4.02e-03 g/l

>  <JCHEM_TRADITIONAL_IUPAC>
(1R,9S,12S,13R,14S,17R,21S,23S,24R,25S,27R)-1,14-dihydroxy-12-[(1E)-1-[(1R,3R,4R)-4-hydroxy-3-methoxycyclohexyl]prop-1-en-2-yl]-23,25-dimethoxy-13,19,21,27-tetramethyl-17-(prop-2-en-1-yl)-11,28-dioxa-4-azatricyclo[22.3.1.0^{4,9}]octacos-18-ene-2,3,10,16-tetrone

>  <JCHEM_VEBER_RULE>
0

>  <DRUGBANK_ID>
DB00864

>  <DRUG_GROUPS>
approved; investigational

>  <GENERIC_NAME>
Tacrolimus

>  <BRANDS>
Advagraf ; Hecoria ; Prograf; Protopic

>  <SALTS>
Tacrolimus Hydrate

$$$$
Benzphetamine
 OpenBabel02121510022D

 18 19  0  0  1  0  0  0  0  0999 V2000
    3.8480   -3.8640    0.0000 C   0  0  0  0  0  0  0  0  0  0  0  0
    4.5650   -3.4460    0.0000 C   0  0  0  0  0  0  0  0  0  0  0  0
    3.8480   -4.6910    0.0000 C   0  0  0  0  0  0  0  0  0  0  0  0
    3.1310   -3.4460    0.0000 C   0  0  0  0  0  0  0  0  0  0  0  0
    5.2790   -3.8600    0.0000 C   0  0  1  0  0  0  0  0  0  0  0  0
    3.1310   -5.1050    0.0000 C   0  0  0  0  0  0  0  0  0  0  0  0
    2.4110   -3.8640    0.0000 C   0  0  0  0  0  0  0  0  0  0  0  0
    5.9960   -3.4460    0.0000 N   0  0  0  0  0  0  0  0  0  0  0  0
    5.2820   -4.6840    0.0000 C   0  0  0  0  0  0  0  0  0  0  0  0
    2.4110   -4.6910    0.0000 C   0  0  0  0  0  0  0  0  0  0  0  0
    6.7100   -3.8570    0.0000 C   0  0  0  0  0  0  0  0  0  0  0  0
    5.9920   -2.6190    0.0000 C   0  0  0  0  0  0  0  0  0  0  0  0
    7.4230   -3.4430    0.0000 C   0  0  0  0  0  0  0  0  0  0  0  0
    8.1370   -3.8570    0.0000 C   0  0  0  0  0  0  0  0  0  0  0  0
    7.4200   -2.6190    0.0000 C   0  0  0  0  0  0  0  0  0  0  0  0
    8.8500   -3.4430    0.0000 C   0  0  0  0  0  0  0  0  0  0  0  0
    8.1330   -2.2060    0.0000 C   0  0  0  0  0  0  0  0  0  0  0  0
    8.8470   -2.6190    0.0000 C   0  0  0  0  0  0  0  0  0  0  0  0
  1  2  1  0  0  0  0
  1  3  2  0  0  0  0
  1  4  1  0  0  0  0
  3  6  1  0  0  0  0
  4  7  2  0  0  0  0
  5  2  1  1  0  0  0
  5  8  1  0  0  0  0
  5  9  1  0  0  0  0
  6 10  2  0  0  0  0
  7 10  1  0  0  0  0
  8 11  1  0  0  0  0
  8 12  1  0  0  0  0
 11 13  1  0  0  0  0
 13 14  2  0  0  0  0
 13 15  1  0  0  0  0
 14 16  1  0  0  0  0
 15 17  2  0  0  0  0
 16 18  2  0  0  0  0
 17 18  1  0  0  0  0
M  END
>  <DATABASE_ID>
DB00865

>  <DATABASE_NAME>
drugbank

>  <SMILES>
N([C@H](Cc1ccccc1)C)(Cc1ccccc1)C

>  <INCHI_IDENTIFIER>
InChI=1S/C17H21N/c1-15(13-16-9-5-3-6-10-16)18(2)14-17-11-7-4-8-12-17/h3-12,15H,13-14H2,1-2H3/t15-/m0/s1

>  <INCHI_KEY>
InChIKey=YXKTVDFXDRQTKV-HNNXBMFYSA-N

>  <JCHEM_ACCEPTOR_COUNT>
1

>  <JCHEM_AVERAGE_POLARIZABILITY>
29.029219

>  <JCHEM_BIOAVAILABILITY>
1

>  <JCHEM_DONOR_COUNT>
0

>  <JCHEM_EXACT_MASS>
239.1674

>  <JCHEM_FORMAL_CHARGE>
0

>  <JCHEM_FORMULA>
C17H21N

>  <JCHEM_GHOSE_FILTER>
1

>  <JCHEM_IUPAC>
benzyl(methyl)[(2S)-1-phenylpropan-2-yl]amine

>  <ALOGPS_LOGP>
3.72

>  <JCHEM_LOGP>
4.3443518

>  <ALOGPS_LOGS>
-4.0100002

>  <JCHEM_MASS>
239.3553

>  <JCHEM_MDDR_LIKE_RULE>
0

>  <JCHEM_NUMBER_OF_RINGS>
2

>  <JCHEM_PHYSIOLOGICAL_CHARGE>
1

>  <JCHEM_PKA_STRONGEST_BASIC>
9.8041458

>  <JCHEM_POLAR_SURFACE_AREA>
3.24

>  <JCHEM_REFRACTIVITY>
78.3871

>  <JCHEM_ROTATABLE_BOND_COUNT>
5

>  <JCHEM_RULE_OF_FIVE>
1

>  <ALOGPS_SOLUBILITY>
2.33e-02 g/l

>  <JCHEM_TRADITIONAL_IUPAC>
benzphetamine

>  <JCHEM_VEBER_RULE>
1

>  <DRUGBANK_ID>
DB00865

>  <DRUG_GROUPS>
approved; illicit

>  <GENERIC_NAME>
Benzphetamine

>  <SYNONYMS>
(+)-benzphetamine; (+)-N-benzyl-N,α-dimethylphenethylamine; (+)-N,α-dimethyl-N-(phenylmethyl)-benzeneethanamine; (S)-(+)-benzphetamine; (S)-(+)-N-benzyl-N,α-dimethylphenethylamine; (S)-benzphetamine; Benzaphetamine; Benzfetamine; Benzylamphetamine; d-N-methyl-N-benzyl-β-phenylisopropylamine; N-methyl-1-phenyl-N-(phenylmethyl)propan-2-amine

>  <BRANDS>
Didrex; Recede; Regimex

>  <SALTS>
Benzphetamine Hydrochloride

$$$$
Benzonatate
 OpenBabel02121510022D

 42 42  0  0  0  0  0  0  0  0999 V2000
    8.0800    1.8560    0.0000 O   0  0  0  0  0  0  0  0  0  0  0  0
    8.7950    3.9190    0.0000 O   0  0  0  0  0  0  0  0  0  0  0  0
    6.6520    0.2060    0.0000 O   0  0  0  0  0  0  0  0  0  0  0  0
   10.2240    5.5690    0.0000 O   0  0  0  0  0  0  0  0  0  0  0  0
    5.9370   -1.8560    0.0000 O   0  0  0  0  0  0  0  0  0  0  0  0
    4.5080   -3.5060    0.0000 O   0  0  0  0  0  0  0  0  0  0  0  0
    3.7940   -5.5690    0.0000 O   0  0  0  0  0  0  0  0  0  0  0  0
   10.9380    7.6310    0.0000 O   0  0  0  0  0  0  0  0  0  0  0  0
   12.3670    9.2820    0.0000 O   0  0  0  0  0  0  0  0  0  0  0  0
    2.3640   -5.5690    0.0000 O   0  0  0  0  0  0  0  0  0  0  0  0
   13.0820   11.3440    0.0000 O   0  0  0  0  0  0  0  0  0  0  0  0
    3.0790   -9.2820    0.0000 N   0  0  0  0  0  0  0  0  0  0  0  0
    2.3640  -10.5190    0.0000 C   0  0  0  0  0  0  0  0  0  0  0  0
    2.3640   -9.6940    0.0000 C   0  0  0  0  0  0  0  0  0  0  0  0
    1.6500  -10.9320    0.0000 C   0  0  0  0  0  0  0  0  0  0  0  0
    3.0790   -8.4560    0.0000 C   0  0  0  0  0  0  0  0  0  0  0  0
    1.6500  -11.7560    0.0000 C   0  0  0  0  0  0  0  0  0  0  0  0
    3.7940   -8.0440    0.0000 C   0  0  0  0  0  0  0  0  0  0  0  0
    2.3640   -8.0440    0.0000 C   0  0  0  0  0  0  0  0  0  0  0  0
    3.0790   -6.8060    0.0000 C   0  0  0  0  0  0  0  0  0  0  0  0
    3.7940   -7.2190    0.0000 C   0  0  0  0  0  0  0  0  0  0  0  0
    2.3640   -7.2190    0.0000 C   0  0  0  0  0  0  0  0  0  0  0  0
    8.0800    2.6810    0.0000 C   0  0  0  0  0  0  0  0  0  0  0  0
    8.7950    3.0940    0.0000 C   0  0  0  0  0  0  0  0  0  0  0  0
    7.3660    1.4440    0.0000 C   0  0  0  0  0  0  0  0  0  0  0  0
    7.3660    0.6190    0.0000 C   0  0  0  0  0  0  0  0  0  0  0  0
    9.5090    4.3310    0.0000 C   0  0  0  0  0  0  0  0  0  0  0  0
    9.5090    5.1560    0.0000 C   0  0  0  0  0  0  0  0  0  0  0  0
    6.6520   -0.6190    0.0000 C   0  0  0  0  0  0  0  0  0  0  0  0
    5.9370   -1.0310    0.0000 C   0  0  0  0  0  0  0  0  0  0  0  0
   10.2240    6.3940    0.0000 C   0  0  0  0  0  0  0  0  0  0  0  0
    5.2220   -2.2690    0.0000 C   0  0  0  0  0  0  0  0  0  0  0  0
    5.2220   -3.0940    0.0000 C   0  0  0  0  0  0  0  0  0  0  0  0
   10.9380    6.8060    0.0000 C   0  0  0  0  0  0  0  0  0  0  0  0
    3.0790   -5.9810    0.0000 C   0  0  0  0  0  0  0  0  0  0  0  0
    4.5080   -4.3310    0.0000 C   0  0  0  0  0  0  0  0  0  0  0  0
    3.7940   -4.7440    0.0000 C   0  0  0  0  0  0  0  0  0  0  0  0
   11.6530    8.0440    0.0000 C   0  0  0  0  0  0  0  0  0  0  0  0
   11.6530    8.8690    0.0000 C   0  0  0  0  0  0  0  0  0  0  0  0
   12.3670   10.1060    0.0000 C   0  0  0  0  0  0  0  0  0  0  0  0
   13.0820   10.5190    0.0000 C   0  0  0  0  0  0  0  0  0  0  0  0
   13.7960   11.7560    0.0000 C   0  0  0  0  0  0  0  0  0  0  0  0
  1 23  1  0  0  0  0
  1 25  1  0  0  0  0
  2 24  1  0  0  0  0
  2 27  1  0  0  0  0
  3 26  1  0  0  0  0
  3 29  1  0  0  0  0
  4 28  1  0  0  0  0
  4 31  1  0  0  0  0
  5 30  1  0  0  0  0
  5 32  1  0  0  0  0
  6 33  1  0  0  0  0
  6 36  1  0  0  0  0
  7 35  1  0  0  0  0
  7 37  1  0  0  0  0
  8 34  1  0  0  0  0
  8 38  1  0  0  0  0
  9 39  1  0  0  0  0
  9 40  1  0  0  0  0
 10 35  2  0  0  0  0
 11 41  1  0  0  0  0
 11 42  1  0  0  0  0
 12 14  1  0  0  0  0
 12 16  1  0  0  0  0
 13 14  1  0  0  0  0
 13 15  1  0  0  0  0
 15 17  1  0  0  0  0
 16 18  2  0  0  0  0
 16 19  1  0  0  0  0
 18 21  1  0  0  0  0
 19 22  2  0  0  0  0
 20 21  2  0  0  0  0
 20 22  1  0  0  0  0
 20 35  1  0  0  0  0
 23 24  1  0  0  0  0
 25 26  1  0  0  0  0
 27 28  1  0  0  0  0
 29 30  1  0  0  0  0
 31 34  1  0  0  0  0
 32 33  1  0  0  0  0
 36 37  1  0  0  0  0
 38 39  1  0  0  0  0
 40 41  1  0  0  0  0
M  END
>  <DATABASE_ID>
DB00868

>  <DATABASE_NAME>
drugbank

>  <SMILES>
O(C(=O)c1ccc(NCCCC)cc1)CCOCCOCCOCCOCCOCCOCCOCCOCCOC

>  <INCHI_IDENTIFIER>
InChI=1S/C30H53NO11/c1-3-4-9-31-29-7-5-28(6-8-29)30(32)42-27-26-41-25-24-40-23-22-39-21-20-38-19-18-37-17-16-36-15-14-35-13-12-34-11-10-33-2/h5-8,31H,3-4,9-27H2,1-2H3

>  <INCHI_KEY>
InChIKey=MAFMQEKGGFWBAB-UHFFFAOYSA-N

>  <JCHEM_ACCEPTOR_COUNT>
11

>  <JCHEM_AVERAGE_POLARIZABILITY>
67.865822

>  <JCHEM_BIOAVAILABILITY>
0

>  <JCHEM_DONOR_COUNT>
1

>  <JCHEM_EXACT_MASS>
603.36188

>  <JCHEM_FORMAL_CHARGE>
0

>  <JCHEM_FORMULA>
C30H53NO11

>  <JCHEM_GHOSE_FILTER>
0

>  <JCHEM_IUPAC>
2,5,8,11,14,17,20,23,26-nonaoxaoctacosan-28-yl 4-(butylamino)benzoate

>  <ALOGPS_LOGP>
2.0899999

>  <JCHEM_LOGP>
2.3506203

>  <ALOGPS_LOGS>
-5.5799999

>  <JCHEM_MASS>
603.74188

>  <JCHEM_MDDR_LIKE_RULE>
0

>  <JCHEM_NUMBER_OF_RINGS>
1

>  <JCHEM_PHYSIOLOGICAL_CHARGE>
0

>  <JCHEM_PKA_STRONGEST_BASIC>
3.4742756

>  <JCHEM_POLAR_SURFACE_AREA>
121.4

>  <JCHEM_REFRACTIVITY>
161.54221

>  <JCHEM_ROTATABLE_BOND_COUNT>
33

>  <JCHEM_RULE_OF_FIVE>
0

>  <ALOGPS_SOLUBILITY>
1.59e-03 g/l

>  <JCHEM_TRADITIONAL_IUPAC>
benzonatate

>  <JCHEM_VEBER_RULE>
0

>  <DRUGBANK_ID>
DB00868

>  <DRUG_GROUPS>
approved

>  <GENERIC_NAME>
Benzonatate

>  <SYNONYMS>
Benzonatat; Benzonatate; Benzonatato; Benzonatatum

>  <BRANDS>
Tesaperl; Tessalon; Zonatuss

$$$$
Guaifenesin
 OpenBabel02121510022D

 14 14  0  0  1  0  0  0  0  0999 V2000
    3.7940   -0.1280    0.0000 O   0  0  0  0  0  0  0  0  0  0  0  0
    3.7940    1.5220    0.0000 O   0  0  0  0  0  0  0  0  0  0  0  0
    5.2220    2.3470    0.0000 O   0  0  0  0  0  0  0  0  0  0  0  0
    2.3640   -0.9530    0.0000 O   0  0  0  0  0  0  0  0  0  0  0  0
    4.5080    1.1100    0.0000 C   0  0  3  0  0  0  0  0  0  0  0  0
    4.5080    0.2850    0.0000 C   0  0  0  0  0  0  0  0  0  0  0  0
    5.2220    1.5220    0.0000 C   0  0  0  0  0  0  0  0  0  0  0  0
    3.7940   -0.9530    0.0000 C   0  0  0  0  0  0  0  0  0  0  0  0
    3.0790   -1.3650    0.0000 C   0  0  0  0  0  0  0  0  0  0  0  0
    4.5080   -1.3650    0.0000 C   0  0  0  0  0  0  0  0  0  0  0  0
    3.0790   -2.1900    0.0000 C   0  0  0  0  0  0  0  0  0  0  0  0
    4.5080   -2.1900    0.0000 C   0  0  0  0  0  0  0  0  0  0  0  0
    3.7940   -2.6030    0.0000 C   0  0  0  0  0  0  0  0  0  0  0  0
    1.6500   -1.3650    0.0000 C   0  0  0  0  0  0  0  0  0  0  0  0
  1  6  1  0  0  0  0
  1  8  1  0  0  0  0
  2  5  1  0  0  0  0
  3  7  1  0  0  0  0
  4  9  1  0  0  0  0
  4 14  1  0  0  0  0
  5  6  1  0  0  0  0
  5  7  1  0  0  0  0
  8  9  2  0  0  0  0
  8 10  1  0  0  0  0
  9 11  1  0  0  0  0
 10 12  2  0  0  0  0
 11 13  2  0  0  0  0
 12 13  1  0  0  0  0
M  END
>  <DATABASE_ID>
DB00874

>  <DATABASE_NAME>
drugbank

>  <SMILES>
O(CC(O)CO)c1ccccc1OC

>  <INCHI_IDENTIFIER>
InChI=1S/C10H14O4/c1-13-9-4-2-3-5-10(9)14-7-8(12)6-11/h2-5,8,11-12H,6-7H2,1H3

>  <INCHI_KEY>
InChIKey=HSRJKNPTNIJEKV-UHFFFAOYSA-N

>  <JCHEM_ACCEPTOR_COUNT>
4

>  <JCHEM_AVERAGE_POLARIZABILITY>
20.59193

>  <JCHEM_BIOAVAILABILITY>
1

>  <JCHEM_DONOR_COUNT>
2

>  <JCHEM_EXACT_MASS>
198.0892

>  <JCHEM_FORMAL_CHARGE>
0

>  <JCHEM_FORMULA>
C10H14O4

>  <JCHEM_GHOSE_FILTER>
1

>  <JCHEM_IUPAC>
3-(2-methoxyphenoxy)propane-1,2-diol

>  <ALOGPS_LOGP>
0.75999999

>  <JCHEM_LOGP>
0.33746633

>  <ALOGPS_LOGS>
-1.12

>  <JCHEM_MASS>
198.21581

>  <JCHEM_MDDR_LIKE_RULE>
0

>  <JCHEM_NUMBER_OF_RINGS>
1

>  <JCHEM_PHYSIOLOGICAL_CHARGE>
0

>  <JCHEM_PKA>
15.562405

>  <JCHEM_PKA_STRONGEST_ACIDIC>
13.624145

>  <JCHEM_PKA_STRONGEST_BASIC>
-2.9686177

>  <JCHEM_POLAR_SURFACE_AREA>
58.919998

>  <JCHEM_REFRACTIVITY>
51.239201

>  <JCHEM_ROTATABLE_BOND_COUNT>
5

>  <JCHEM_RULE_OF_FIVE>
1

>  <ALOGPS_SOLUBILITY>
1.49e+01 g/l

>  <JCHEM_TRADITIONAL_IUPAC>
guaifenesin

>  <JCHEM_VEBER_RULE>
0

>  <DRUGBANK_ID>
DB00874

>  <DRUG_GROUPS>
approved

>  <GENERIC_NAME>
Guaifenesin

>  <SYNONYMS>
Glyceryl guaiacolate; guaiphenesin

>  <BRANDS>
Duratuss G; Ganidin; Hustosil; Hytuss; Mucinex; Robitussin; Scot-tussin Expectorant; Sinumist-SR

$$$$
Eprosartan
 OpenBabel02121510022D

 30 32  0  0  0  0  0  0  0  0999 V2000
   -0.7140   -0.4120    0.0000 N   0  0  0  0  0  0  0  0  0  0  0  0
    0.0000   -0.8250    0.0000 C   0  0  0  0  0  0  0  0  0  0  0  0
    0.7140   -0.4120    0.0000 C   0  0  0  0  0  0  0  0  0  0  0  0
    0.7140    0.4120    0.0000 C   0  0  0  0  0  0  0  0  0  0  0  0
    0.0000    0.8250    0.0000 C   0  0  0  0  0  0  0  0  0  0  0  0
   -0.7140    0.4120    0.0000 C   0  0  0  0  0  0  0  0  0  0  0  0
    1.4290   -0.8250    0.0000 C   0  0  0  0  0  0  0  0  0  0  0  0
    2.1430   -0.4130    0.0000 C   0  0  0  0  0  0  0  0  0  0  0  0
    2.1430    0.4120    0.0000 C   0  0  0  0  0  0  0  0  0  0  0  0
    1.4290    0.8250    0.0000 C   0  0  0  0  0  0  0  0  0  0  0  0
    0.0000    1.6500    0.0000 C   0  0  0  0  0  0  0  0  0  0  0  0
    0.7150    2.0620    0.0000 C   0  0  0  0  0  0  0  0  0  0  0  0
    0.7150    2.8870    0.0000 O   0  0  0  0  0  0  0  0  0  0  0  0
    1.4290    1.6500    0.0000 O   0  0  0  0  0  0  0  0  0  0  0  0
    2.8580    0.8250    0.0000 C   0  0  0  0  0  0  0  0  0  0  0  0
    2.8580    1.6500    0.0000 O   0  0  0  0  0  0  0  0  0  0  0  0
    3.5720    0.4120    0.0000 O   0  0  0  0  0  0  0  0  0  0  0  0
   -1.4990    0.6670    0.0000 C   0  0  0  0  0  0  0  0  0  0  0  0
   -1.9840    0.0000    0.0000 N   0  0  0  0  0  0  0  0  0  0  0  0
   -1.4990   -0.6670    0.0000 C   0  0  0  0  0  0  0  0  0  0  0  0
   -1.7540   -1.4520    0.0000 C   0  0  0  0  0  0  0  0  0  0  0  0
   -2.5610   -1.6240    0.0000 C   0  0  0  0  0  0  0  0  0  0  0  0
   -2.8160   -2.4080    0.0000 C   0  0  0  0  0  0  0  0  0  0  0  0
   -3.6230   -2.5800    0.0000 C   0  0  0  0  0  0  0  0  0  0  0  0
   -0.7140    2.0620    0.0000 C   0  0  0  0  0  0  0  0  0  0  0  0
   -0.7140    2.8870    0.0000 C   0  0  0  0  0  0  0  0  0  0  0  0
   -0.0470    3.3720    0.0000 S   0  0  0  0  0  0  0  0  0  0  0  0
   -0.3020    4.1570    0.0000 C   0  0  0  0  0  0  0  0  0  0  0  0
   -1.1260    4.1570    0.0000 C   0  0  0  0  0  0  0  0  0  0  0  0
   -1.3820    3.3720    0.0000 C   0  0  0  0  0  0  0  0  0  0  0  0
  1  2  1  0  0  0  0
  1  6  1  0  0  0  0
  1 20  1  0  0  0  0
  2  3  1  0  0  0  0
  3  4  2  0  0  0  0
  3  7  1  0  0  0  0
  4 10  1  0  0  0  0
  5  6  1  0  0  0  0
  5 11  2  0  0  0  0
  6 18  2  0  0  0  0
  7  8  2  0  0  0  0
  8  9  1  0  0  0  0
  9 10  2  0  0  0  0
  9 15  1  0  0  0  0
 11 12  1  0  0  0  0
 11 25  1  0  0  0  0
 12 13  2  0  0  0  0
 12 14  1  0  0  0  0
 15 16  2  0  0  0  0
 15 17  1  0  0  0  0
 18 19  1  0  0  0  0
 19 20  2  0  0  0  0
 20 21  1  0  0  0  0
 21 22  1  0  0  0  0
 22 23  1  0  0  0  0
 23 24  1  0  0  0  0
 25 26  1  0  0  0  0
 26 27  1  0  0  0  0
 26 30  2  0  0  0  0
 27 28  1  0  0  0  0
 28 29  2  0  0  0  0
 29 30  1  0  0  0  0
M  END
>  <DATABASE_ID>
DB00876

>  <DATABASE_NAME>
drugbank

>  <SMILES>
s1cccc1C\C(=C/c1n(Cc2ccc(cc2)C(O)=O)c(nc1)CCCC)\C(O)=O

>  <INCHI_IDENTIFIER>
InChI=1S/C23H24N2O4S/c1-2-3-6-21-24-14-19(12-18(23(28)29)13-20-5-4-11-30-20)25(21)15-16-7-9-17(10-8-16)22(26)27/h4-5,7-12,14H,2-3,6,13,15H2,1H3,(H,26,27)(H,28,29)/b18-12+

>  <INCHI_KEY>
InChIKey=OROAFUQRIXKEMV-LDADJPATSA-N

>  <JCHEM_ACCEPTOR_COUNT>
5

>  <JCHEM_AVERAGE_POLARIZABILITY>
45.291683

>  <JCHEM_BIOAVAILABILITY>
1

>  <JCHEM_DONOR_COUNT>
2

>  <JCHEM_EXACT_MASS>
424.14569

>  <JCHEM_FORMAL_CHARGE>
0

>  <JCHEM_FORMULA>
C23H24N2O4S

>  <JCHEM_GHOSE_FILTER>
1

>  <JCHEM_IUPAC>
4-({2-butyl-5-[(1E)-2-carboxy-2-(thiophen-2-ylmethyl)eth-1-en-1-yl]-1H-imidazol-1-yl}methyl)benzoic acid

>  <ALOGPS_LOGP>
3.5699999

>  <JCHEM_LOGP>
3.7972305

>  <ALOGPS_LOGS>
-4.6900001

>  <JCHEM_MASS>
424.513

>  <JCHEM_MDDR_LIKE_RULE>
1

>  <JCHEM_NUMBER_OF_RINGS>
3

>  <JCHEM_PHYSIOLOGICAL_CHARGE>
-2

>  <JCHEM_PKA>
4.3116884

>  <JCHEM_PKA_STRONGEST_ACIDIC>
3.6324818

>  <JCHEM_PKA_STRONGEST_BASIC>
6.9326096

>  <JCHEM_POLAR_SURFACE_AREA>
92.419998

>  <JCHEM_REFRACTIVITY>
117.0243

>  <JCHEM_ROTATABLE_BOND_COUNT>
10

>  <JCHEM_RULE_OF_FIVE>
1

>  <ALOGPS_SOLUBILITY>
8.66e-03 g/l

>  <JCHEM_TRADITIONAL_IUPAC>
eprosartan

>  <JCHEM_VEBER_RULE>
0

>  <DRUGBANK_ID>
DB00876

>  <DRUG_GROUPS>
approved

>  <GENERIC_NAME>
Eprosartan

>  <SYNONYMS>
Eprosartan; Éprosartan; Eprosartan; Eprosartanum

>  <BRANDS>
Eprozar; Futuran; Teveten

>  <SALTS>
Eprosartan mesylate

$$$$
Sirolimus
 OpenBabel02121510022D

 69 72  0  0  1  0  0  0  0  0999 V2000
    7.7390  -13.8480    0.0000 C   0  0  0  0  0  0  0  0  0  0  0  0
    7.7390  -14.6730    0.0000 C   0  0  2  0  0  0  0  0  0  0  0  0
    7.0240  -13.4360    0.0000 C   0  0  0  0  0  0  0  0  0  0  0  0
    7.0240  -15.0860    0.0000 N   0  0  0  0  0  0  0  0  0  0  0  0
    6.3100  -13.8480    0.0000 C   0  0  0  0  0  0  0  0  0  0  0  0
    6.3100  -14.6730    0.0000 C   0  0  0  0  0  0  0  0  0  0  0  0
    8.4530  -15.0860    0.0000 C   0  0  0  0  0  0  0  0  0  0  0  0
    8.4530  -15.9110    0.0000 O   0  0  0  0  0  0  0  0  0  0  0  0
    7.7390  -16.3230    0.0000 O   0  0  0  0  0  0  0  0  0  0  0  0
    7.0240  -15.9110    0.0000 C   0  0  0  0  0  0  0  0  0  0  0  0
    6.3100  -16.3230    0.0000 C   0  0  0  0  0  0  0  0  0  0  0  0
    5.5960  -15.9110    0.0000 O   0  0  0  0  0  0  0  0  0  0  0  0
    9.8820  -15.0860    0.0000 C   0  0  2  0  0  0  0  0  0  0  0  0
    9.8820  -15.9110    0.0000 C   0  0  0  0  0  0  0  0  0  0  0  0
    9.1680  -14.6730    0.0000 O   0  0  0  0  0  0  0  0  0  0  0  0
   11.3110  -15.0860    0.0000 C   0  0  0  0  0  0  0  0  0  0  0  0
   11.3110  -15.9110    0.0000 O   0  0  0  0  0  0  0  0  0  0  0  0
   10.5970  -14.6730    0.0000 C   0  0  2  0  0  0  0  0  0  0  0  0
   10.5970  -16.3230    0.0000 C   0  0  0  0  0  0  0  0  0  0  0  0
   12.0260  -13.8480    0.0000 C   0  0  0  0  0  0  0  0  0  0  0  0
   12.0260  -14.6730    0.0000 C   0  0  2  0  0  0  0  0  0  0  0  0
   10.5970  -13.8480    0.0000 C   0  0  0  0  0  0  0  0  0  0  0  0
   13.4550  -13.8480    0.0000 C   0  0  1  0  0  0  0  0  0  0  0  0
   13.4550  -14.6730    0.0000 C   0  0  1  0  0  0  0  0  0  0  0  0
   12.7400  -13.4360    0.0000 C   0  0  0  0  0  0  0  0  0  0  0  0
   12.7400  -15.0860    0.0000 C   0  0  0  0  0  0  0  0  0  0  0  0
    7.0240  -17.5610    0.0000 O   0  0  0  0  0  0  0  0  0  0  0  0
    6.3100  -17.1480    0.0000 C   0  0  2  0  0  0  0  0  0  0  0  0
    7.0240  -18.3860    0.0000 C   0  0  1  0  0  0  0  0  0  0  0  0
    6.3100  -18.7980    0.0000 C   0  0  0  0  0  0  0  0  0  0  0  0
    5.5960  -17.5600    0.0000 C   0  0  1  0  0  0  0  0  0  0  0  0
    5.5950  -18.3850    0.0000 C   0  0  0  0  0  0  0  0  0  0  0  0
    7.7390  -18.7980    0.0000 C   0  0  0  0  0  0  0  0  0  0  0  0
    7.7390  -19.6230    0.0000 C   0  0  2  0  0  0  0  0  0  0  0  0
    7.0240  -20.0360    0.0000 O   0  0  0  0  0  0  0  0  0  0  0  0
    9.1680  -19.6230    0.0000 C   0  0  0  0  0  0  0  0  0  0  0  0
    8.4530  -20.0360    0.0000 C   0  0  0  0  0  0  0  0  0  0  0  0
    8.4530  -20.8600    0.0000 C   0  0  0  0  0  0  0  0  0  0  0  0
    7.0240  -20.8600    0.0000 C   0  0  0  0  0  0  0  0  0  0  0  0
   10.5130  -15.4470    0.0000 H   0  0  0  0  0  0  0  0  0  0  0  0
    4.8810  -17.1480    0.0000 C   0  0  0  0  0  0  0  0  0  0  0  0
   10.5970  -17.1480    0.0000 C   0  0  2  0  0  0  0  0  0  0  0  0
    9.8820  -17.5610    0.0000 C   0  0  0  0  0  0  0  0  0  0  0  0
   11.3110  -17.5610    0.0000 C   0  0  0  0  0  0  0  0  0  0  0  0
   11.3110  -18.3860    0.0000 C   0  0  0  0  0  0  0  0  0  0  0  0
   10.5970  -18.7980    0.0000 C   0  0  0  0  0  0  0  0  0  0  0  0
   12.0260  -18.7980    0.0000 C   0  0  2  0  0  0  0  0  0  0  0  0
   12.0260  -19.6230    0.0000 C   0  0  1  0  0  0  0  0  0  0  0  0
   11.3110  -20.0360    0.0000 O   0  0  0  0  0  0  0  0  0  0  0  0
   12.7400  -18.3860    0.0000 O   0  0  0  0  0  0  0  0  0  0  0  0
   12.7400  -20.0360    0.0000 C   0  0  0  0  0  0  0  0  0  0  0  0
    7.0240  -19.0850    0.0000 H   0  0  0  0  0  0  0  0  0  0  0  0
    9.1610  -21.2930    0.0000 C   0  0  0  0  0  0  0  0  0  0  0  0
    9.1610  -22.2510    0.0000 C   0  0  0  0  0  0  0  0  0  0  0  0
   12.7400  -20.8610    0.0000 C   0  0  1  0  0  0  0  0  0  0  0  0
   12.0020  -21.2570    0.0000 C   0  0  0  0  0  0  0  0  0  0  0  0
   11.3110  -20.8600    0.0000 C   0  0  0  0  0  0  0  0  0  0  0  0
   13.4550  -19.6230    0.0000 O   0  0  0  0  0  0  0  0  0  0  0  0
    9.8210  -22.6210    0.0000 C   0  0  0  0  0  0  0  0  0  0  0  0
   10.5360  -22.1260    0.0000 C   0  0  0  0  0  0  0  0  0  0  0  0
   11.3460  -22.1260    0.0000 C   0  0  1  0  0  0  0  0  0  0  0  0
   13.4590  -21.2460    0.0000 C   0  0  0  0  0  0  0  0  0  0  0  0
   12.0370  -22.9660    0.0000 C   0  0  0  0  0  0  0  0  0  0  0  0
   12.0370  -15.4710    0.0000 H   0  0  0  0  0  0  0  0  0  0  0  0
   14.1690  -13.4360    0.0000 O   0  0  0  0  0  0  0  0  0  0  0  0
   14.1690  -15.0860    0.0000 O   0  0  0  0  0  0  0  0  0  0  0  0
   14.8840  -14.6730    0.0000 C   0  0  0  0  0  0  0  0  0  0  0  0
    7.7390  -15.5180    0.0000 H   0  0  0  0  0  0  0  0  0  0  0  0
    6.3090  -18.0010    0.0000 O   0  0  0  0  0  0  0  0  0  0  0  0
  1  2  1  0  0  0  0
  1  3  1  0  0  0  0
  2  4  1  0  0  0  0
  2  7  1  0  0  0  0
  2 68  1  6  0  0  0
  3  5  1  0  0  0  0
  4  6  1  0  0  0  0
  4 10  1  0  0  0  0
  5  6  1  0  0  0  0
  7  8  2  0  0  0  0
  7 15  1  0  0  0  0
  9 10  2  0  0  0  0
 10 11  1  0  0  0  0
 11 12  2  0  0  0  0
 11 28  1  0  0  0  0
 13 14  1  0  0  0  0
 13 15  1  0  0  0  0
 13 18  1  0  0  0  0
 13 40  1  1  0  0  0
 14 19  1  0  0  0  0
 17 19  2  0  0  0  0
 18 16  1  1  0  0  0
 18 22  1  0  0  0  0
 19 42  1  0  0  0  0
 20 21  1  0  0  0  0
 20 25  1  0  0  0  0
 21 16  1  0  0  0  0
 21 26  1  0  0  0  0
 21 64  1  1  0  0  0
 23 24  1  0  0  0  0
 23 25  1  0  0  0  0
 23 65  1  1  0  0  0
 24 26  1  0  0  0  0
 24 66  1  6  0  0  0
 27 28  1  0  0  0  0
 27 29  1  0  0  0  0
 28 31  1  0  0  0  0
 28 69  1  1  0  0  0
 29 30  1  0  0  0  0
 29 33  1  0  0  0  0
 29 52  1  1  0  0  0
 30 32  1  0  0  0  0
 31 32  1  0  0  0  0
 31 41  1  1  0  0  0
 33 34  1  0  0  0  0
 34 35  1  1  0  0  0
 34 37  1  0  0  0  0
 35 39  1  0  0  0  0
 36 37  1  0  0  0  0
 37 38  2  0  0  0  0
 38 53  1  0  0  0  0
 42 43  1  1  0  0  0
 42 44  1  0  0  0  0
 44 45  2  0  0  0  0
 45 46  1  0  0  0  0
 45 47  1  0  0  0  0
 47 48  1  0  0  0  0
 47 50  1  1  0  0  0
 48 49  1  6  0  0  0
 48 51  1  0  0  0  0
 49 57  1  0  0  0  0
 51 55  1  0  0  0  0
 51 58  2  0  0  0  0
 53 54  2  0  0  0  0
 54 59  1  0  0  0  0
 55 56  1  0  0  0  0
 55 62  1  6  0  0  0
 56 61  1  0  0  0  0
 59 60  2  0  0  0  0
 60 61  1  0  0  0  0
 61 63  1  6  0  0  0
 66 67  1  0  0  0  0
M  END
>  <DATABASE_ID>
DB00877

>  <DATABASE_NAME>
drugbank

>  <SMILES>
O1[C@@H](CC(=O)[C@@H](\C=C(/C)\[C@@H](O)[C@@H](OC)C(=O)[C@@H](C[C@@H](\C=C\C=C\C=C(/C)\[C@@H](OC)C[C@H]2O[C@](O)([C@@H](CC2)C)C(=O)C(=O)N2[C@@H](CCCC2)C1=O)C)C)C)[C@H](C[C@H]1C[C@@H](OC)[C@H](O)CC1)C

>  <INCHI_IDENTIFIER>
InChI=1S/C51H79NO13/c1-30-16-12-11-13-17-31(2)42(61-8)28-38-21-19-36(7)51(60,65-38)48(57)49(58)52-23-15-14-18-39(52)50(59)64-43(33(4)26-37-20-22-40(53)44(27-37)62-9)29-41(54)32(3)25-35(6)46(56)47(63-10)45(55)34(5)24-30/h11-13,16-17,25,30,32-34,36-40,42-44,46-47,53,56,60H,14-15,18-24,26-29H2,1-10H3/b13-11+,16-12+,31-17+,35-25+/t30-,32-,33+,34-,36-,37+,38+,39+,40-,42+,43+,44-,46-,47+,51-/m1/s1

>  <INCHI_KEY>
InChIKey=QFJCIRLUMZQUOT-KLHQEZAJSA-N

>  <JCHEM_ACCEPTOR_COUNT>
12

>  <JCHEM_AVERAGE_POLARIZABILITY>
100.4613

>  <JCHEM_BIOAVAILABILITY>
0

>  <JCHEM_DONOR_COUNT>
3

>  <JCHEM_EXACT_MASS>
913.55511

>  <JCHEM_FORMAL_CHARGE>
0

>  <JCHEM_FORMULA>
C51H79NO13

>  <JCHEM_GHOSE_FILTER>
0

>  <JCHEM_IUPAC>
(1R,9S,12S,15R,18R,19R,21R,23S,30S,32S,35R)-1,18-dihydroxy-12-[(2S)-1-[(1S,3R,4R)-4-hydroxy-3-methoxycyclohexyl]propan-2-yl]-19,30-dimethoxy-15,17,21,23,29,35-hexamethyl-11,36-dioxa-4-azatricyclo[30.3.1.0^{4,9}]hexatriaconta-16,24,26,28-tetraene-2,3,10,14,20-pentone

>  <ALOGPS_LOGP>
4.8499999

>  <JCHEM_LOGP>
7.45084

>  <ALOGPS_LOGS>
-5.7199998

>  <JCHEM_MASS>
914.17188

>  <JCHEM_MDDR_LIKE_RULE>
1

>  <JCHEM_NUMBER_OF_RINGS>
4

>  <JCHEM_PHYSIOLOGICAL_CHARGE>
0

>  <JCHEM_PKA>
13.368197

>  <JCHEM_PKA_STRONGEST_ACIDIC>
9.963728

>  <JCHEM_PKA_STRONGEST_BASIC>
-3.0405209

>  <JCHEM_POLAR_SURFACE_AREA>
195.42999

>  <JCHEM_REFRACTIVITY>
250.66319

>  <JCHEM_ROTATABLE_BOND_COUNT>
6

>  <JCHEM_RULE_OF_FIVE>
0

>  <ALOGPS_SOLUBILITY>
1.73e-03 g/l

>  <JCHEM_TRADITIONAL_IUPAC>
(1R,9S,12S,15R,18R,19R,21R,23S,30S,32S,35R)-1,18-dihydroxy-12-[(2S)-1-[(1S,3R,4R)-4-hydroxy-3-methoxycyclohexyl]propan-2-yl]-19,30-dimethoxy-15,17,21,23,29,35-hexamethyl-11,36-dioxa-4-azatricyclo[30.3.1.0^{4,9}]hexatriaconta-16,24,26,28-tetraene-2,3,10,14,20-pentone

>  <JCHEM_VEBER_RULE>
0

>  <DRUGBANK_ID>
DB00877

>  <DRUG_GROUPS>
approved; investigational

>  <GENERIC_NAME>
Sirolimus

>  <SYNONYMS>
(-)-Rapamycin

>  <BRANDS>
Rapamune

$$$$
Chlorhexidine
 OpenBabel02121510022D
Created with ChemWriter - http://chemwriter.com
 34 35  0  0  0  0  0  0  0  0999 V2000
    3.8860    1.4560    0.0000 C   0  0  0  0  0  0  0  0  0  0  0  0
    4.6010    1.8690    0.0000 N   0  0  0  0  0  0  0  0  0  0  0  0
    5.3150    1.4560    0.0000 C   0  0  0  0  0  0  0  0  0  0  0  0
    5.3150    0.6310    0.0000 N   0  0  0  0  0  0  0  0  0  0  0  0
    6.0300    1.8690    0.0000 N   0  0  0  0  0  0  0  0  0  0  0  0
    6.7440    1.4560    0.0000 C   0  0  0  0  0  0  0  0  0  0  0  0
    6.7440    0.6310    0.0000 N   0  0  0  0  0  0  0  0  0  0  0  0
    7.4580    1.8690    0.0000 N   0  0  0  0  0  0  0  0  0  0  0  0
    8.1730    1.4560    0.0000 C   0  0  0  0  0  0  0  0  0  0  0  0
    8.8750    1.8890    0.0000 C   0  0  0  0  0  0  0  0  0  0  0  0
    8.1970    0.6320    0.0000 C   0  0  0  0  0  0  0  0  0  0  0  0
    8.9230    0.2400    0.0000 C   0  0  0  0  0  0  0  0  0  0  0  0
    9.6010    1.4980    0.0000 C   0  0  0  0  0  0  0  0  0  0  0  0
    9.6250    0.6730    0.0000 C   0  0  0  0  0  0  0  0  0  0  0  0
   10.3400    0.2610    0.0000 Cl  0  0  0  0  0  0  0  0  0  0  0  0
    3.8860    0.6310    0.0000 C   0  0  0  0  0  0  0  0  0  0  0  0
    3.1720    0.2190    0.0000 C   0  0  0  0  0  0  0  0  0  0  0  0
    3.1720   -0.6060    0.0000 C   0  0  0  0  0  0  0  0  0  0  0  0
    3.8860   -1.0190    0.0000 C   0  0  0  0  0  0  0  0  0  0  0  0
    3.8860   -1.8440    0.0000 C   0  0  0  0  0  0  0  0  0  0  0  0
    4.6010   -2.2560    0.0000 N   0  0  0  0  0  0  0  0  0  0  0  0
    5.3150   -1.8440    0.0000 C   0  0  0  0  0  0  0  0  0  0  0  0
    5.3150   -1.0190    0.0000 N   0  0  0  0  0  0  0  0  0  0  0  0
    6.0300   -2.2560    0.0000 N   0  0  0  0  0  0  0  0  0  0  0  0
    6.7440   -1.8440    0.0000 C   0  0  0  0  0  0  0  0  0  0  0  0
    6.7440   -1.0190    0.0000 N   0  0  0  0  0  0  0  0  0  0  0  0
    7.4580   -2.2560    0.0000 N   0  0  0  0  0  0  0  0  0  0  0  0
    8.1730   -1.8440    0.0000 C   0  0  0  0  0  0  0  0  0  0  0  0
    8.8870   -0.6060    0.0000 C   0  0  0  0  0  0  0  0  0  0  0  0
    8.1730   -1.0190    0.0000 C   0  0  0  0  0  0  0  0  0  0  0  0
    8.8870   -2.2560    0.0000 C   0  0  0  0  0  0  0  0  0  0  0  0
    9.6020   -1.8440    0.0000 C   0  0  0  0  0  0  0  0  0  0  0  0
    9.6020   -1.0190    0.0000 C   0  0  0  0  0  0  0  0  0  0  0  0
   10.3160   -0.6060    0.0000 Cl  0  0  0  0  0  0  0  0  0  0  0  0
  1  2  1  0  0  0  0
  1 16  1  0  0  0  0
  2  3  1  0  0  0  0
  3  4  2  0  0  0  0
  3  5  1  0  0  0  0
  5  6  1  0  0  0  0
  6  7  2  0  0  0  0
  6  8  1  0  0  0  0
  8  9  1  0  0  0  0
  9 10  1  0  0  0  0
  9 11  2  0  0  0  0
 10 13  2  0  0  0  0
 11 12  1  0  0  0  0
 12 14  2  0  0  0  0
 13 14  1  0  0  0  0
 14 15  1  0  0  0  0
 16 17  1  0  0  0  0
 17 18  1  0  0  0  0
 18 19  1  0  0  0  0
 19 20  1  0  0  0  0
 20 21  1  0  0  0  0
 21 22  1  0  0  0  0
 22 23  2  0  0  0  0
 22 24  1  0  0  0  0
 24 25  1  0  0  0  0
 25 26  2  0  0  0  0
 25 27  1  0  0  0  0
 27 28  1  0  0  0  0
 28 30  2  0  0  0  0
 28 31  1  0  0  0  0
 29 30  1  0  0  0  0
 29 33  2  0  0  0  0
 31 32  2  0  0  0  0
 32 33  1  0  0  0  0
 33 34  1  0  0  0  0
M  END
>  <DATABASE_ID>
DB00878

>  <DATABASE_NAME>
drugbank

>  <SMILES>
Clc1ccc(NC(NC(NCCCCCCNC(NC(Nc2ccc(Cl)cc2)=N)=N)=N)=N)cc1

>  <INCHI_IDENTIFIER>
InChI=1S/C22H30Cl2N10/c23-15-5-9-17(10-6-15)31-21(27)33-19(25)29-13-3-1-2-4-14-30-20(26)34-22(28)32-18-11-7-16(24)8-12-18/h5-12H,1-4,13-14H2,(H5,25,27,29,31,33)(H5,26,28,30,32,34)

>  <INCHI_KEY>
InChIKey=GHXZTYHSJHQHIJ-UHFFFAOYSA-N

>  <JCHEM_ACCEPTOR_COUNT>
10

>  <JCHEM_AVERAGE_POLARIZABILITY>
54.599834

>  <JCHEM_BIOAVAILABILITY>
0

>  <JCHEM_DONOR_COUNT>
10

>  <JCHEM_EXACT_MASS>
504.20319

>  <JCHEM_FORMAL_CHARGE>
0

>  <JCHEM_FORMULA>
C22H30Cl2N10

>  <JCHEM_GHOSE_FILTER>
0

>  <JCHEM_IUPAC>
N-(4-chlorophenyl)-1-3-(6-{N-[3-(4-chlorophenyl)carbamimidamidomethanimidoyl]amino}hexyl)carbamimidamidomethanimidamide

>  <ALOGPS_LOGP>
2.71

>  <JCHEM_LOGP>
4.5103693

>  <ALOGPS_LOGS>
-4.29

>  <JCHEM_MASS>
505.44699

>  <JCHEM_MDDR_LIKE_RULE>
0

>  <JCHEM_NUMBER_OF_RINGS>
2

>  <JCHEM_PHYSIOLOGICAL_CHARGE>
4

>  <JCHEM_PKA_STRONGEST_BASIC>
10.516536

>  <JCHEM_POLAR_SURFACE_AREA>
167.58

>  <JCHEM_REFRACTIVITY>
181.7146

>  <JCHEM_ROTATABLE_BOND_COUNT>
9

>  <JCHEM_RULE_OF_FIVE>
0

>  <ALOGPS_SOLUBILITY>
2.61e-02 g/l

>  <JCHEM_TRADITIONAL_IUPAC>
chlorhexidine

>  <JCHEM_VEBER_RULE>
0

>  <DRUGBANK_ID>
DB00878

>  <DRUG_GROUPS>
approved

>  <GENERIC_NAME>
Chlorhexidine

>  <SYNONYMS>
Chlorhexidin; Chlorhexidinum; Cloresidina; Clorhexidina

>  <BRANDS>
BETASEPT; Cida-Stat; Corsodyl; Dyna-Hex; Exidine; Hexadol; Hibiclens; Hibidil; Hibiscrub; Hibistat; Hibitane; Microderm; Oro-Clense; PAROEX; Perichlor; Peridex; Periochip; Periogard; Periogard Oral Rinse; Pharmaseal Scrub Care; Prevacare R; Rotersept; Sterilon; Tubulicid

>  <SALTS>
Chlorhexidine gluconate

$$$$
Emtricitabine
 OpenBabel02121510022D

 16 17  0  0  1  0  0  0  0  0999 V2000
    2.6660   -1.4950    0.0000 S   0  0  0  0  0  0  0  0  0  0  0  0
    4.5080    2.2490    0.0000 F   0  0  0  0  0  0  0  0  0  0  0  0
    3.7460   -0.7110    0.0000 O   0  0  0  0  0  0  0  0  0  0  0  0
    3.6410   -2.9160    0.0000 O   0  0  0  0  0  0  0  0  0  0  0  0
    1.6500    0.5990    0.0000 O   0  0  0  0  0  0  0  0  0  0  0  0
    3.0790    0.5990    0.0000 N   0  0  0  0  0  0  0  0  0  0  0  0
    2.3640    1.8370    0.0000 N   0  0  0  0  0  0  0  0  0  0  0  0
    3.0790    3.0740    0.0000 N   0  0  0  0  0  0  0  0  0  0  0  0
    3.0790   -0.2260    0.0000 C   0  0  2  0  0  0  0  0  0  0  0  0
    2.4120   -0.7110    0.0000 C   0  0  0  0  0  0  0  0  0  0  0  0
    3.4920   -1.4950    0.0000 C   0  0  1  0  0  0  0  0  0  0  0  0
    3.9760   -2.1630    0.0000 C   0  0  0  0  0  0  0  0  0  0  0  0
    3.7940    1.0120    0.0000 C   0  0  0  0  0  0  0  0  0  0  0  0
    2.3640    1.0120    0.0000 C   0  0  0  0  0  0  0  0  0  0  0  0
    3.7940    1.8370    0.0000 C   0  0  0  0  0  0  0  0  0  0  0  0
    3.0790    2.2490    0.0000 C   0  0  0  0  0  0  0  0  0  0  0  0
  1 10  1  0  0  0  0
  1 11  1  0  0  0  0
  2 15  1  0  0  0  0
  3  9  1  0  0  0  0
  3 11  1  0  0  0  0
  4 12  1  0  0  0  0
  5 14  2  0  0  0  0
  6 13  1  0  0  0  0
  6 14  1  0  0  0  0
  7 14  1  0  0  0  0
  7 16  2  0  0  0  0
  8 16  1  0  0  0  0
  9  6  1  1  0  0  0
  9 10  1  0  0  0  0
 11 12  1  1  0  0  0
 13 15  2  0  0  0  0
 15 16  1  0  0  0  0
M  END
>  <DATABASE_ID>
DB00879

>  <DATABASE_NAME>
drugbank

>  <SMILES>
S1C[C@H](O[C@H]1CO)N1C=C(F)C(=NC1=O)N

>  <INCHI_IDENTIFIER>
InChI=1S/C8H10FN3O3S/c9-4-1-12(8(14)11-7(4)10)5-3-16-6(2-13)15-5/h1,5-6,13H,2-3H2,(H2,10,11,14)/t5-,6+/m0/s1

>  <INCHI_KEY>
InChIKey=XQSPYNMVSIKCOC-NTSWFWBYSA-N

>  <JCHEM_ACCEPTOR_COUNT>
5

>  <JCHEM_AVERAGE_POLARIZABILITY>
21.79101

>  <JCHEM_BIOAVAILABILITY>
1

>  <JCHEM_DONOR_COUNT>
2

>  <JCHEM_EXACT_MASS>
247.04269

>  <JCHEM_FORMAL_CHARGE>
0

>  <JCHEM_FORMULA>
C8H10FN3O3S

>  <JCHEM_GHOSE_FILTER>
0

>  <JCHEM_IUPAC>
4-amino-5-fluoro-1-[(2R,5S)-2-(hydroxymethyl)-1,3-oxathiolan-5-yl]-1,2-dihydropyrimidin-2-one

>  <ALOGPS_LOGP>
-0.80000001

>  <JCHEM_LOGP>
-0.89566469

>  <ALOGPS_LOGS>
-2.0899999

>  <JCHEM_MASS>
247.24699

>  <JCHEM_MDDR_LIKE_RULE>
0

>  <JCHEM_NUMBER_OF_RINGS>
2

>  <JCHEM_PHYSIOLOGICAL_CHARGE>
0

>  <JCHEM_PKA_STRONGEST_ACIDIC>
14.294606

>  <JCHEM_PKA_STRONGEST_BASIC>
-3.1073394

>  <JCHEM_POLAR_SURFACE_AREA>
88.150002

>  <JCHEM_REFRACTIVITY>
55.367401

>  <JCHEM_ROTATABLE_BOND_COUNT>
2

>  <JCHEM_RULE_OF_FIVE>
1

>  <ALOGPS_SOLUBILITY>
2.00e+00 g/l

>  <JCHEM_TRADITIONAL_IUPAC>
emtricitabine

>  <JCHEM_VEBER_RULE>
0

>  <DRUGBANK_ID>
DB00879

>  <DRUG_GROUPS>
approved; investigational

>  <GENERIC_NAME>
Emtricitabine

>  <SYNONYMS>
Emtricitabin; Emtricitabina; Emtricitabine; Emtricitabine; Emtricitabinum

>  <BRANDS>
Coviracil; Emtriva

$$$$
Chlorothiazide
 OpenBabel02121510022D

 17 18  0  0  0  0  0  0  0  0999 V2000
    2.8080    1.0170    0.0000 Cl  0  0  0  0  0  0  0  0  0  0  0  0
    5.6880   -0.6620    0.0000 S   0  0  0  0  0  0  0  0  0  0  0  0
    2.8080   -0.6330    0.0000 S   0  0  0  0  0  0  0  0  0  0  0  0
    6.0930   -1.3810    0.0000 O   0  0  0  0  0  0  0  0  0  0  0  0
    5.2680   -1.3710    0.0000 O   0  0  0  0  0  0  0  0  0  0  0  0
    3.2200   -1.3480    0.0000 O   0  0  0  0  0  0  0  0  0  0  0  0
    2.3950    0.0810    0.0000 O   0  0  0  0  0  0  0  0  0  0  0  0
    5.6880    1.0460    0.0000 N   0  0  0  0  0  0  0  0  0  0  0  0
    6.4360   -0.2380    0.0000 N   0  0  0  0  0  0  0  0  0  0  0  0
    2.0930   -1.0460    0.0000 N   0  0  0  0  0  0  0  0  0  0  0  0
    4.9510   -0.2200    0.0000 C   0  0  0  0  0  0  0  0  0  0  0  0
    4.9510    0.6040    0.0000 C   0  0  0  0  0  0  0  0  0  0  0  0
    3.5220   -0.2200    0.0000 C   0  0  0  0  0  0  0  0  0  0  0  0
    4.2360   -0.6330    0.0000 C   0  0  0  0  0  0  0  0  0  0  0  0
    4.2360    1.0170    0.0000 C   0  0  0  0  0  0  0  0  0  0  0  0
    3.5220    0.6040    0.0000 C   0  0  0  0  0  0  0  0  0  0  0  0
    6.4360    0.6220    0.0000 C   0  0  0  0  0  0  0  0  0  0  0  0
  1 16  1  0  0  0  0
  2  4  2  0  0  0  0
  2  5  2  0  0  0  0
  2  9  1  0  0  0  0
  2 11  1  0  0  0  0
  3  6  2  0  0  0  0
  3  7  2  0  0  0  0
  3 10  1  0  0  0  0
  3 13  1  0  0  0  0
  8 12  1  0  0  0  0
  8 17  1  0  0  0  0
  9 17  2  0  0  0  0
 11 12  1  0  0  0  0
 11 14  2  0  0  0  0
 12 15  2  0  0  0  0
 13 14  1  0  0  0  0
 13 16  2  0  0  0  0
 15 16  1  0  0  0  0
M  END
>  <DATABASE_ID>
DB00880

>  <DATABASE_NAME>
drugbank

>  <SMILES>
Clc1cc2NC=NS(=O)(=O)c2cc1S(=O)(=O)N

>  <INCHI_IDENTIFIER>
InChI=1S/C7H6ClN3O4S2/c8-4-1-5-7(2-6(4)16(9,12)13)17(14,15)11-3-10-5/h1-3H,(H,10,11)(H2,9,12,13)

>  <INCHI_KEY>
InChIKey=JBMKAUGHUNFTOL-UHFFFAOYSA-N

>  <JCHEM_ACCEPTOR_COUNT>
6

>  <JCHEM_AVERAGE_POLARIZABILITY>
24.546188

>  <JCHEM_BIOAVAILABILITY>
1

>  <JCHEM_DONOR_COUNT>
2

>  <JCHEM_EXACT_MASS>
294.94882

>  <JCHEM_FORMAL_CHARGE>
0

>  <JCHEM_FORMULA>
C7H6ClN3O4S2

>  <JCHEM_GHOSE_FILTER>
0

>  <JCHEM_IUPAC>
6-chloro-1,1-dioxo-4H-1$l^{6},2,4-benzothiadiazine-7-sulfonamide

>  <ALOGPS_LOGP>
0.41

>  <JCHEM_LOGP>
-0.4421815

>  <ALOGPS_LOGS>
-2.8699999

>  <JCHEM_MASS>
295.72299

>  <JCHEM_MDDR_LIKE_RULE>
0

>  <JCHEM_NUMBER_OF_RINGS>
2

>  <JCHEM_PHYSIOLOGICAL_CHARGE>
0

>  <JCHEM_PKA>
10.115704

>  <JCHEM_PKA_STRONGEST_ACIDIC>
9.1031027

>  <JCHEM_PKA_STRONGEST_BASIC>
1.14828

>  <JCHEM_POLAR_SURFACE_AREA>
118.69

>  <JCHEM_REFRACTIVITY>
62.508202

>  <JCHEM_ROTATABLE_BOND_COUNT>
1

>  <JCHEM_RULE_OF_FIVE>
1

>  <ALOGPS_SOLUBILITY>
3.98e-01 g/l

>  <JCHEM_TRADITIONAL_IUPAC>
chlorothiazide

>  <JCHEM_VEBER_RULE>
0

>  <DRUGBANK_ID>
DB00880

>  <DRUG_GROUPS>
approved

>  <GENERIC_NAME>
Chlorothiazide

>  <SYNONYMS>
Chlorothiazid; Chlorothiazidum; Chlorthiazide; Mechlozid; Uroflux

>  <BRANDS>
Diuril

>  <SALTS>
Chlorothiazide Sodium

$$$$
Quinapril
 OpenBabel02121510022D

 32 34  0  0  1  0  0  0  0  0999 V2000
    3.0790    1.5220    0.0000 O   0  0  0  0  0  0  0  0  0  0  0  0
    3.7930    3.5850    0.0000 O   0  0  0  0  0  0  0  0  0  0  0  0
    3.0790    2.3470    0.0000 O   0  0  0  0  0  0  0  0  0  0  0  0
    2.3640   -2.1900    0.0000 O   0  0  0  0  0  0  0  0  0  0  0  0
    1.6500   -0.9530    0.0000 O   0  0  0  0  0  0  0  0  0  0  0  0
    4.5080    1.5220    0.0000 N   0  0  0  0  0  0  0  0  0  0  0  0
    3.0790   -0.1280    0.0000 N   0  0  0  0  0  0  0  0  0  0  0  0
    4.5080    2.3470    0.0000 C   0  0  1  0  0  0  0  0  0  0  0  0
    5.2220    2.7600    0.0000 C   0  0  0  0  0  0  0  0  0  0  0  0
    5.2220    1.1100    0.0000 C   0  0  0  0  0  0  0  0  0  0  0  0
    5.9370    2.3470    0.0000 C   0  0  0  0  0  0  0  0  0  0  0  0
    5.9370    1.5220    0.0000 C   0  0  0  0  0  0  0  0  0  0  0  0
    3.7930    0.2850    0.0000 C   0  0  2  0  0  0  0  0  0  0  0  0
    3.7930    1.1100    0.0000 C   0  0  0  0  0  0  0  0  0  0  0  0
    3.0790   -0.9530    0.0000 C   0  0  1  0  0  0  0  0  0  0  0  0
    3.7930    2.7600    0.0000 C   0  0  0  0  0  0  0  0  0  0  0  0
    3.7930   -1.3650    0.0000 C   0  0  0  0  0  0  0  0  0  0  0  0
    6.6740    2.7880    0.0000 C   0  0  0  0  0  0  0  0  0  0  0  0
    6.6740    1.0810    0.0000 C   0  0  0  0  0  0  0  0  0  0  0  0
    4.5080   -0.1280    0.0000 C   0  0  0  0  0  0  0  0  0  0  0  0
    3.7930   -2.1900    0.0000 C   0  0  0  0  0  0  0  0  0  0  0  0
    7.4220    2.3640    0.0000 C   0  0  0  0  0  0  0  0  0  0  0  0
    7.4220    1.5050    0.0000 C   0  0  0  0  0  0  0  0  0  0  0  0
    2.3640   -1.3650    0.0000 C   0  0  0  0  0  0  0  0  0  0  0  0
    4.5080   -2.6030    0.0000 C   0  0  0  0  0  0  0  0  0  0  0  0
    5.2220   -2.1900    0.0000 C   0  0  0  0  0  0  0  0  0  0  0  0
    4.5080   -3.4280    0.0000 C   0  0  0  0  0  0  0  0  0  0  0  0
    1.6500   -2.6030    0.0000 C   0  0  0  0  0  0  0  0  0  0  0  0
    5.9370   -2.6030    0.0000 C   0  0  0  0  0  0  0  0  0  0  0  0
    5.2220   -3.8400    0.0000 C   0  0  0  0  0  0  0  0  0  0  0  0
    5.9370   -3.4280    0.0000 C   0  0  0  0  0  0  0  0  0  0  0  0
    1.6500   -3.4280    0.0000 C   0  0  0  0  0  0  0  0  0  0  0  0
  1 14  2  0  0  0  0
  2 16  1  0  0  0  0
  3 16  2  0  0  0  0
  4 24  1  0  0  0  0
  4 28  1  0  0  0  0
  5 24  2  0  0  0  0
  6  8  1  0  0  0  0
  6 10  1  0  0  0  0
  6 14  1  0  0  0  0
  8  9  1  0  0  0  0
  8 16  1  6  0  0  0
  9 11  1  0  0  0  0
 10 12  1  0  0  0  0
 11 12  1  0  0  0  0
 11 18  2  0  0  0  0
 12 19  2  0  0  0  0
 13  7  1  6  0  0  0
 13 14  1  0  0  0  0
 13 20  1  0  0  0  0
 15  7  1  1  0  0  0
 15 17  1  0  0  0  0
 15 24  1  0  0  0  0
 17 21  1  0  0  0  0
 18 22  1  0  0  0  0
 19 23  1  0  0  0  0
 21 25  1  0  0  0  0
 22 23  2  0  0  0  0
 25 26  2  0  0  0  0
 25 27  1  0  0  0  0
 26 29  1  0  0  0  0
 27 30  2  0  0  0  0
 28 32  1  0  0  0  0
 29 31  2  0  0  0  0
 30 31  1  0  0  0  0
M  END
>  <DATABASE_ID>
DB00881

>  <DATABASE_NAME>
drugbank

>  <SMILES>
O(CC)C(=O)[C@@H](N[C@H](C(=O)N1Cc2c(C[C@H]1C(O)=O)cccc2)C)CCc1ccccc1

>  <INCHI_IDENTIFIER>
InChI=1S/C25H30N2O5/c1-3-32-25(31)21(14-13-18-9-5-4-6-10-18)26-17(2)23(28)27-16-20-12-8-7-11-19(20)15-22(27)24(29)30/h4-12,17,21-22,26H,3,13-16H2,1-2H3,(H,29,30)/t17-,21-,22-/m0/s1

>  <INCHI_KEY>
InChIKey=JSDRRTOADPPCHY-HSQYWUDLSA-N

>  <JCHEM_ACCEPTOR_COUNT>
5

>  <JCHEM_AVERAGE_POLARIZABILITY>
47.358013

>  <JCHEM_BIOAVAILABILITY>
1

>  <JCHEM_DONOR_COUNT>
2

>  <JCHEM_EXACT_MASS>
438.21548

>  <JCHEM_FORMAL_CHARGE>
0

>  <JCHEM_FORMULA>
C25H30N2O5

>  <JCHEM_GHOSE_FILTER>
1

>  <JCHEM_IUPAC>
(3S)-2-[(2S)-2-{[(2S)-1-ethoxy-1-oxo-4-phenylbutan-2-yl]amino}propanoyl]-1,2,3,4-tetrahydroisoquinoline-3-carboxylic acid

>  <ALOGPS_LOGP>
1.39

>  <JCHEM_LOGP>
1.9639356

>  <ALOGPS_LOGS>
-4.71

>  <JCHEM_MASS>
438.51611

>  <JCHEM_MDDR_LIKE_RULE>
1

>  <JCHEM_NUMBER_OF_RINGS>
3

>  <JCHEM_PHYSIOLOGICAL_CHARGE>
-1

>  <JCHEM_PKA_STRONGEST_ACIDIC>
3.7003553

>  <JCHEM_PKA_STRONGEST_BASIC>
5.2018013

>  <JCHEM_POLAR_SURFACE_AREA>
95.940002

>  <JCHEM_REFRACTIVITY>
119.9558

>  <JCHEM_ROTATABLE_BOND_COUNT>
10

>  <JCHEM_RULE_OF_FIVE>
1

>  <ALOGPS_SOLUBILITY>
8.50e-03 g/l

>  <JCHEM_TRADITIONAL_IUPAC>
quinapril

>  <JCHEM_VEBER_RULE>
0

>  <DRUGBANK_ID>
DB00881

>  <DRUG_GROUPS>
approved; investigational

>  <GENERIC_NAME>
Quinapril

>  <SYNONYMS>
Quinaprilum

>  <BRANDS>
Accupril; Accuprin; Accupro; Acequin; Acuitel; Korec; Quinazil

>  <SALTS>
Quinapril Hydrochloride

$$$$
Clomifene
 OpenBabel02121510022D

 29 31  0  0  0  0  0  0  0  0999 V2000
    7.0160  -13.1170    0.0000 C   0  0  0  0  0  0  0  0  0  0  0  0
    7.0160  -13.9430    0.0000 C   0  0  0  0  0  0  0  0  0  0  0  0
    7.7180  -14.3560    0.0000 C   0  0  0  0  0  0  0  0  0  0  0  0
    8.4620  -13.9430    0.0000 C   0  0  0  0  0  0  0  0  0  0  0  0
    8.4620  -13.1170    0.0000 C   0  0  0  0  0  0  0  0  0  0  0  0
    7.7180  -12.7040    0.0000 C   0  0  0  0  0  0  0  0  0  0  0  0
    9.8660  -13.9430    0.0000 C   0  0  0  0  0  0  0  0  0  0  0  0
    9.8660  -13.1170    0.0000 C   0  0  0  0  0  0  0  0  0  0  0  0
    9.1640  -12.7040    0.0000 C   0  0  0  0  0  0  0  0  0  0  0  0
   10.6100  -14.3560    0.0000 C   0  0  0  0  0  0  0  0  0  0  0  0
   11.3120  -13.9430    0.0000 C   0  0  0  0  0  0  0  0  0  0  0  0
   11.3120  -13.1170    0.0000 C   0  0  0  0  0  0  0  0  0  0  0  0
   10.6100  -12.7040    0.0000 C   0  0  0  0  0  0  0  0  0  0  0  0
    9.1640  -11.8780    0.0000 C   0  0  0  0  0  0  0  0  0  0  0  0
   12.0300  -14.3540    0.0000 O   0  0  0  0  0  0  0  0  0  0  0  0
   12.7310  -13.9450    0.0000 C   0  0  0  0  0  0  0  0  0  0  0  0
   13.4370  -14.3490    0.0000 C   0  0  0  0  0  0  0  0  0  0  0  0
   14.1350  -13.9420    0.0000 N   0  0  0  0  0  0  0  0  0  0  0  0
   14.8430  -14.3470    0.0000 C   0  0  0  0  0  0  0  0  0  0  0  0
   15.5390  -13.9420    0.0000 C   0  0  0  0  0  0  0  0  0  0  0  0
   14.1310  -13.1170    0.0000 C   0  0  0  0  0  0  0  0  0  0  0  0
   14.8380  -12.7050    0.0000 C   0  0  0  0  0  0  0  0  0  0  0  0
    8.4480  -11.4640    0.0000 Cl  0  0  0  0  0  0  0  0  0  0  0  0
    9.8770  -11.4660    0.0000 C   0  0  0  0  0  0  0  0  0  0  0  0
   10.5740  -11.8680    0.0000 C   0  0  0  0  0  0  0  0  0  0  0  0
   11.2880  -11.4560    0.0000 C   0  0  0  0  0  0  0  0  0  0  0  0
   11.2880  -10.6310    0.0000 C   0  0  0  0  0  0  0  0  0  0  0  0
   10.5920  -10.2280    0.0000 C   0  0  0  0  0  0  0  0  0  0  0  0
    9.8770  -10.6410    0.0000 C   0  0  0  0  0  0  0  0  0  0  0  0
  1  2  1  0  0  0  0
  1  6  2  0  0  0  0
  2  3  2  0  0  0  0
  3  4  1  0  0  0  0
  4  5  2  0  0  0  0
  5  6  1  0  0  0  0
  5  9  1  0  0  0  0
  7  8  2  0  0  0  0
  7 10  1  0  0  0  0
  8  9  1  0  0  0  0
  8 13  1  0  0  0  0
  9 14  2  0  0  0  0
 10 11  2  0  0  0  0
 11 12  1  0  0  0  0
 11 15  1  0  0  0  0
 12 13  2  0  0  0  0
 14 23  1  0  0  0  0
 14 24  1  0  0  0  0
 15 16  1  0  0  0  0
 16 17  1  0  0  0  0
 17 18  1  0  0  0  0
 18 19  1  0  0  0  0
 18 21  1  0  0  0  0
 19 20  1  0  0  0  0
 21 22  1  0  0  0  0
 24 25  1  0  0  0  0
 24 29  2  0  0  0  0
 25 26  2  0  0  0  0
 26 27  1  0  0  0  0
 27 28  2  0  0  0  0
 28 29  1  0  0  0  0
M  END
>  <DATABASE_ID>
DB00882

>  <DATABASE_NAME>
drugbank

>  <SMILES>
ClC(=C(c1ccc(OCCN(CC)CC)cc1)c1ccccc1)c1ccccc1

>  <INCHI_IDENTIFIER>
InChI=1S/C26H28ClNO/c1-3-28(4-2)19-20-29-24-17-15-22(16-18-24)25(21-11-7-5-8-12-21)26(27)23-13-9-6-10-14-23/h5-18H,3-4,19-20H2,1-2H3/b26-25+

>  <INCHI_KEY>
InChIKey=GKIRPKYJQBWNGO-OCEACIFDSA-N

>  <JCHEM_ACCEPTOR_COUNT>
2

>  <JCHEM_AVERAGE_POLARIZABILITY>
46.699951

>  <JCHEM_BIOAVAILABILITY>
1

>  <JCHEM_DONOR_COUNT>
0

>  <JCHEM_EXACT_MASS>
405.18594

>  <JCHEM_FORMAL_CHARGE>
0

>  <JCHEM_FORMULA>
C26H28ClNO

>  <JCHEM_GHOSE_FILTER>
0

>  <JCHEM_IUPAC>
{2-[4-(2-chloro-1,2-diphenylethenyl)phenoxy]ethyl}diethylamine

>  <ALOGPS_LOGP>
6.0799999

>  <JCHEM_LOGP>
6.4749379

>  <ALOGPS_LOGS>
-5.9899998

>  <JCHEM_MASS>
405.95999

>  <JCHEM_MDDR_LIKE_RULE>
1

>  <JCHEM_NUMBER_OF_RINGS>
3

>  <JCHEM_PHYSIOLOGICAL_CHARGE>
1

>  <JCHEM_PKA_STRONGEST_BASIC>
9.3066969

>  <JCHEM_POLAR_SURFACE_AREA>
12.47

>  <JCHEM_REFRACTIVITY>
133.7612

>  <JCHEM_ROTATABLE_BOND_COUNT>
9

>  <JCHEM_RULE_OF_FIVE>
0

>  <ALOGPS_SOLUBILITY>
4.14e-04 g/l

>  <JCHEM_TRADITIONAL_IUPAC>
clomiphene

>  <JCHEM_VEBER_RULE>
1

>  <DRUGBANK_ID>
DB00882

>  <DRUG_GROUPS>
approved; investigational

>  <GENERIC_NAME>
Clomifene

>  <SYNONYMS>
Clomifeno; Clomifenum; Clomiphene

>  <BRANDS>
Androxal; Clomid; Clomifert; Clostilbegyt; Omifin; Serophene

>  <SALTS>
Clomifene citrate

$$$$
Isosorbide Dinitrate
 OpenBabel02121510022D

 18 19  0  0  1  0  0  0  0  0999 V2000
    4.8300   -0.6610    0.0000 O   0  0  0  0  0  0  0  0  0  0  0  0
    3.2640    0.6700    0.0000 O   0  0  0  0  0  0  0  0  0  0  0  0
    5.0860    1.4510    0.0000 O   0  0  0  0  0  0  0  0  0  0  0  0
    3.0090   -1.4490    0.0000 O   0  0  0  0  0  0  0  0  0  0  0  0
    6.1490    2.4050    0.0000 O   0  5  0  0  0  0  0  0  0  0  0  0
    6.4440    1.0070    0.0000 O   0  0  0  0  0  0  0  0  0  0  0  0
    1.9470   -2.4050    0.0000 O   0  5  0  0  0  0  0  0  0  0  0  0
    1.6500   -1.0080    0.0000 O   0  0  0  0  0  0  0  0  0  0  0  0
    5.8930    1.6210    0.0000 N   0  3  0  0  0  0  0  0  0  0  0  0
    2.2020   -1.6210    0.0000 N   0  3  0  0  0  0  0  0  0  0  0  0
    4.0490    0.4150    0.0000 C   0  0  1  0  0  0  0  0  0  0  0  0
    4.0490   -0.4100    0.0000 C   0  0  1  0  0  0  0  0  0  0  0  0
    4.8300    0.6670    0.0000 C   0  0  2  0  0  0  0  0  0  0  0  0
    3.2640   -0.6650    0.0000 C   0  0  1  0  0  0  0  0  0  0  0  0
    5.3110    0.0030    0.0000 C   0  0  0  0  0  0  0  0  0  0  0  0
    2.7790    0.0030    0.0000 C   0  0  0  0  0  0  0  0  0  0  0  0
    4.0500    1.0750    0.0000 H   0  0  0  0  0  0  0  0  0  0  0  0
    4.0500   -1.0700    0.0000 H   0  0  0  0  0  0  0  0  0  0  0  0
  1 12  1  0  0  0  0
  1 15  1  0  0  0  0
  2 11  1  0  0  0  0
  2 16  1  0  0  0  0
  3  9  1  0  0  0  0
  4 10  1  0  0  0  0
  5  9  1  0  0  0  0
  6  9  2  0  0  0  0
  7 10  1  0  0  0  0
  8 10  2  0  0  0  0
 11 12  1  0  0  0  0
 11 13  1  0  0  0  0
 11 17  1  1  0  0  0
 12 14  1  0  0  0  0
 12 18  1  1  0  0  0
 13  3  1  1  0  0  0
 13 15  1  0  0  0  0
 14  4  1  6  0  0  0
 14 16  1  0  0  0  0
M  CHG  4   5  -1   7  -1   9   1  10   1
M  END
>  <DATABASE_ID>
DB00883

>  <DATABASE_NAME>
drugbank

>  <SMILES>
O1[C@H]2[C@H](OC[C@@H]2O[N+](=O)[O-])[C@H](O[N+](=O)[O-])C1

>  <INCHI_IDENTIFIER>
InChI=1S/C6H8N2O8/c9-7(10)15-3-1-13-6-4(16-8(11)12)2-14-5(3)6/h3-6H,1-2H2/t3-,4+,5-,6-/m1/s1

>  <INCHI_KEY>
InChIKey=MOYKHGMNXAOIAT-JGWLITMVSA-N

>  <JCHEM_ACCEPTOR_COUNT>
8

>  <JCHEM_AVERAGE_POLARIZABILITY>
18.072878

>  <JCHEM_BIOAVAILABILITY>
1

>  <JCHEM_DONOR_COUNT>
0

>  <JCHEM_EXACT_MASS>
236.02806

>  <JCHEM_FORMAL_CHARGE>
0

>  <JCHEM_FORMULA>
C6H8N2O8

>  <JCHEM_GHOSE_FILTER>
1

>  <JCHEM_IUPAC>
(3R,3aS,6S,6aS)-6-(nitrooxy)-hexahydrofuro[3,2-b]furan-3-yl nitrate

>  <ALOGPS_LOGP>
0.87

>  <JCHEM_LOGP>
0.4432914

>  <ALOGPS_LOGS>
-2.4000001

>  <JCHEM_MASS>
236.13631

>  <JCHEM_MDDR_LIKE_RULE>
0

>  <JCHEM_NUMBER_OF_RINGS>
2

>  <JCHEM_PHYSIOLOGICAL_CHARGE>
0

>  <JCHEM_PKA_STRONGEST_BASIC>
-3.8961391

>  <JCHEM_POLAR_SURFACE_AREA>
128.56

>  <JCHEM_REFRACTIVITY>
44.7714

>  <JCHEM_ROTATABLE_BOND_COUNT>
4

>  <JCHEM_RULE_OF_FIVE>
1

>  <ALOGPS_SOLUBILITY>
9.38e-01 g/l

>  <JCHEM_TRADITIONAL_IUPAC>
isosorbide dinitrate

>  <JCHEM_VEBER_RULE>
0

>  <DRUGBANK_ID>
DB00883

>  <DRUG_GROUPS>
approved

>  <GENERIC_NAME>
Isosorbide Dinitrate

>  <SYNONYMS>
D-Isosorbide dinitrate; Dianhydrosorbitol 2,5-dinitrate; ISDN; Isosorbide 2,5-dinitrate; Sorbide nitrate; Sorbidnitrate

>  <BRANDS>
Carvasin; Dilatrate-SR; Flindix; Isoket; Isorbid; Isordil; Nitrosorbide; Sorbidilat

$$$$
Risedronate
 OpenBabel02121510022D

 17 17  0  0  0  0  0  0  0  0999 V2000
    2.8080    1.4130    0.0000 P   0  0  0  0  0  0  0  0  0  0  0  0
    3.9340    1.1110    0.0000 P   0  0  0  0  0  0  0  0  0  0  0  0
    3.6320   -0.0160    0.0000 O   0  0  0  0  0  0  0  0  0  0  0  0
    2.3950    2.1280    0.0000 O   0  0  0  0  0  0  0  0  0  0  0  0
    2.0930    1.0010    0.0000 O   0  0  0  0  0  0  0  0  0  0  0  0
    4.6490    1.5240    0.0000 O   0  0  0  0  0  0  0  0  0  0  0  0
    4.3470    0.3970    0.0000 O   0  0  0  0  0  0  0  0  0  0  0  0
    3.0900    2.1890    0.0000 O   0  0  0  0  0  0  0  0  0  0  0  0
    4.0780    1.9240    0.0000 O   0  0  0  0  0  0  0  0  0  0  0  0
    1.7910   -1.7760    0.0000 N   0  0  0  0  0  0  0  0  0  0  0  0
    3.2200    0.6990    0.0000 C   0  0  0  0  0  0  0  0  0  0  0  0
    2.5050    0.2860    0.0000 C   0  0  0  0  0  0  0  0  0  0  0  0
    2.5050   -0.5390    0.0000 C   0  0  0  0  0  0  0  0  0  0  0  0
    3.2200   -0.9510    0.0000 C   0  0  0  0  0  0  0  0  0  0  0  0
    1.7910   -0.9510    0.0000 C   0  0  0  0  0  0  0  0  0  0  0  0
    3.2200   -1.7760    0.0000 C   0  0  0  0  0  0  0  0  0  0  0  0
    2.5050   -2.1890    0.0000 C   0  0  0  0  0  0  0  0  0  0  0  0
  1  4  1  0  0  0  0
  1  5  1  0  0  0  0
  1  8  2  0  0  0  0
  1 11  1  0  0  0  0
  2  6  1  0  0  0  0
  2  7  1  0  0  0  0
  2  9  2  0  0  0  0
  2 11  1  0  0  0  0
  3 11  1  0  0  0  0
 10 15  2  0  0  0  0
 10 17  1  0  0  0  0
 11 12  1  0  0  0  0
 12 13  1  0  0  0  0
 13 14  2  0  0  0  0
 13 15  1  0  0  0  0
 14 16  1  0  0  0  0
 16 17  2  0  0  0  0
M  END
>  <DATABASE_ID>
DB00884

>  <DATABASE_NAME>
drugbank

>  <SMILES>
P(O)(O)(=O)C(P(O)(O)=O)(O)Cc1cccnc1

>  <INCHI_IDENTIFIER>
InChI=1S/C7H11NO7P2/c9-7(16(10,11)12,17(13,14)15)4-6-2-1-3-8-5-6/h1-3,5,9H,4H2,(H2,10,11,12)(H2,13,14,15)

>  <INCHI_KEY>
InChIKey=IIDJRNMFWXDHID-UHFFFAOYSA-N

>  <JCHEM_ACCEPTOR_COUNT>
8

>  <JCHEM_AVERAGE_POLARIZABILITY>
21.907356

>  <JCHEM_BIOAVAILABILITY>
1

>  <JCHEM_DONOR_COUNT>
5

>  <JCHEM_EXACT_MASS>
283.00107

>  <JCHEM_FORMAL_CHARGE>
0

>  <JCHEM_FORMULA>
C7H11NO7P2

>  <JCHEM_GHOSE_FILTER>
0

>  <JCHEM_IUPAC>
[1-hydroxy-1-phosphono-2-(pyridin-3-yl)ethyl]phosphonic acid

>  <ALOGPS_LOGP>
-0.75

>  <JCHEM_LOGP>
-3.3238657

>  <ALOGPS_LOGS>
-1.4299999

>  <JCHEM_MASS>
283.1123

>  <JCHEM_MDDR_LIKE_RULE>
0

>  <JCHEM_NUMBER_OF_RINGS>
1

>  <JCHEM_PHYSIOLOGICAL_CHARGE>
-2

>  <JCHEM_PKA>
1.4431961

>  <JCHEM_PKA_STRONGEST_ACIDIC>
0.68025309

>  <JCHEM_PKA_STRONGEST_BASIC>
4.9120994

>  <JCHEM_POLAR_SURFACE_AREA>
148.17999

>  <JCHEM_REFRACTIVITY>
57.124699

>  <JCHEM_ROTATABLE_BOND_COUNT>
4

>  <JCHEM_RULE_OF_FIVE>
1

>  <ALOGPS_SOLUBILITY>
1.04e+01 g/l

>  <JCHEM_TRADITIONAL_IUPAC>
1-hydroxy-1-phosphono-2-(pyridin-3-yl)ethylphosphonic acid

>  <JCHEM_VEBER_RULE>
0

>  <DRUGBANK_ID>
DB00884

>  <DRUG_GROUPS>
approved; investigational

>  <GENERIC_NAME>
Risedronate

>  <SYNONYMS>
Acide risédroniqe; Acido risedronico; Acidum risedronicum; Risedronic acid; Risedronsäure

>  <BRANDS>
Actonel; Atelvia; Benet

>  <SALTS>
Risedronate sodium

$$$$
Bumetanide
 OpenBabel02121510022D

 25 26  0  0  0  0  0  0  0  0999 V2000
    5.5540    2.2770    0.0000 S   0  0  0  0  0  0  0  0  0  0  0  0
    4.1250    1.4520    0.0000 O   0  0  0  0  0  0  0  0  0  0  0  0
    4.7290    2.2770    0.0000 O   0  0  0  0  0  0  0  0  0  0  0  0
    6.3790    2.2770    0.0000 O   0  0  0  0  0  0  0  0  0  0  0  0
    6.9830   -1.0230    0.0000 O   0  0  0  0  0  0  0  0  0  0  0  0
    7.6970    0.2150    0.0000 O   0  0  0  0  0  0  0  0  0  0  0  0
    4.4270   -0.5000    0.0000 N   0  0  0  0  0  0  0  0  0  0  0  0
    5.5540    3.1020    0.0000 N   0  0  0  0  0  0  0  0  0  0  0  0
    4.8400   -1.2140    0.0000 C   0  0  0  0  0  0  0  0  0  0  0  0
    4.4270   -1.9290    0.0000 C   0  0  0  0  0  0  0  0  0  0  0  0
    4.8400    0.2150    0.0000 C   0  0  0  0  0  0  0  0  0  0  0  0
    4.8400    1.0400    0.0000 C   0  0  0  0  0  0  0  0  0  0  0  0
    5.5540    1.4520    0.0000 C   0  0  0  0  0  0  0  0  0  0  0  0
    4.8400   -2.6430    0.0000 C   0  0  0  0  0  0  0  0  0  0  0  0
    5.5540   -0.1980    0.0000 C   0  0  0  0  0  0  0  0  0  0  0  0
    6.2680    0.2150    0.0000 C   0  0  0  0  0  0  0  0  0  0  0  0
    6.2680    1.0400    0.0000 C   0  0  0  0  0  0  0  0  0  0  0  0
    4.4270   -3.3580    0.0000 C   0  0  0  0  0  0  0  0  0  0  0  0
    3.3000    1.4520    0.0000 C   0  0  0  0  0  0  0  0  0  0  0  0
    6.9830   -0.1980    0.0000 C   0  0  0  0  0  0  0  0  0  0  0  0
    2.8880    0.7380    0.0000 C   0  0  0  0  0  0  0  0  0  0  0  0
    2.8880    2.1670    0.0000 C   0  0  0  0  0  0  0  0  0  0  0  0
    2.0620    0.7380    0.0000 C   0  0  0  0  0  0  0  0  0  0  0  0
    2.0620    2.1670    0.0000 C   0  0  0  0  0  0  0  0  0  0  0  0
    1.6500    1.4520    0.0000 C   0  0  0  0  0  0  0  0  0  0  0  0
  1  3  2  0  0  0  0
  1  4  2  0  0  0  0
  1  8  1  0  0  0  0
  1 13  1  0  0  0  0
  2 12  1  0  0  0  0
  2 19  1  0  0  0  0
  5 20  1  0  0  0  0
  6 20  2  0  0  0  0
  7  9  1  0  0  0  0
  7 11  1  0  0  0  0
  9 10  1  0  0  0  0
 10 14  1  0  0  0  0
 11 12  2  0  0  0  0
 11 15  1  0  0  0  0
 12 13  1  0  0  0  0
 13 17  2  0  0  0  0
 14 18  1  0  0  0  0
 15 16  2  0  0  0  0
 16 17  1  0  0  0  0
 16 20  1  0  0  0  0
 19 21  2  0  0  0  0
 19 22  1  0  0  0  0
 21 23  1  0  0  0  0
 22 24  2  0  0  0  0
 23 25  2  0  0  0  0
 24 25  1  0  0  0  0
M  END
>  <DATABASE_ID>
DB00887

>  <DATABASE_NAME>
drugbank

>  <SMILES>
S(=O)(=O)(N)c1cc(cc(NCCCC)c1Oc1ccccc1)C(O)=O

>  <INCHI_IDENTIFIER>
InChI=1S/C17H20N2O5S/c1-2-3-9-19-14-10-12(17(20)21)11-15(25(18,22)23)16(14)24-13-7-5-4-6-8-13/h4-8,10-11,19H,2-3,9H2,1H3,(H,20,21)(H2,18,22,23)

>  <INCHI_KEY>
InChIKey=MAEIEVLCKWDQJH-UHFFFAOYSA-N

>  <JCHEM_ACCEPTOR_COUNT>
5

>  <JCHEM_AVERAGE_POLARIZABILITY>
37.209465

>  <JCHEM_BIOAVAILABILITY>
1

>  <JCHEM_DONOR_COUNT>
3

>  <JCHEM_EXACT_MASS>
364.10928

>  <JCHEM_FORMAL_CHARGE>
0

>  <JCHEM_FORMULA>
C17H20N2O5S

>  <JCHEM_GHOSE_FILTER>
1

>  <JCHEM_IUPAC>
3-(butylamino)-4-phenoxy-5-sulfamoylbenzoic acid

>  <ALOGPS_LOGP>
3.4400001

>  <JCHEM_LOGP>
2.4234617

>  <ALOGPS_LOGS>
-4.1500001

>  <JCHEM_MASS>
364.41599

>  <JCHEM_MDDR_LIKE_RULE>
0

>  <JCHEM_NUMBER_OF_RINGS>
2

>  <JCHEM_PHYSIOLOGICAL_CHARGE>
-1

>  <JCHEM_PKA>
9.6219645

>  <JCHEM_PKA_STRONGEST_ACIDIC>
4.6927853

>  <JCHEM_PKA_STRONGEST_BASIC>
2.6973732

>  <JCHEM_POLAR_SURFACE_AREA>
118.72

>  <JCHEM_REFRACTIVITY>
95.780296

>  <JCHEM_ROTATABLE_BOND_COUNT>
8

>  <JCHEM_RULE_OF_FIVE>
1

>  <ALOGPS_SOLUBILITY>
2.57e-02 g/l

>  <JCHEM_TRADITIONAL_IUPAC>
bumetanide

>  <JCHEM_VEBER_RULE>
0

>  <DRUGBANK_ID>
DB00887

>  <DRUG_GROUPS>
approved

>  <GENERIC_NAME>
Bumetanide

>  <SYNONYMS>
Bumetanida; Bumetanidum

>  <BRANDS>
Bumetanide; Bumex; Burinex; Fordiuran; Lunetoron

$$$$
Granisetron
 OpenBabel02121510022D

 23 26  0  0  1  0  0  0  0  0999 V2000
    3.5650   -0.0900    0.0000 O   0  0  0  0  0  0  0  0  0  0  0  0
    4.8550    3.0460    0.0000 N   0  0  0  0  0  0  0  0  0  0  0  0
    4.9230   -0.5340    0.0000 N   0  0  0  0  0  0  0  0  0  0  0  0
    4.3410   -2.1530    0.0000 N   0  0  0  0  0  0  0  0  0  0  0  0
    3.8600   -2.8170    0.0000 N   0  0  0  0  0  0  0  0  0  0  0  0
    5.8490    2.8480    0.0000 C   0  0  3  0  0  0  0  0  0  0  0  0
    6.2220    2.1120    0.0000 C   0  0  3  0  0  0  0  0  0  0  0  0
    4.6960    0.9180    0.0000 C   0  0  0  0  0  0  0  0  0  0  0  0
    5.9650    0.5030    0.0000 C   0  0  0  0  0  0  0  0  0  0  0  0
    5.1800    0.2500    0.0000 C   0  0  3  0  0  0  0  0  0  0  0  0
    7.2410    3.6010    0.0000 C   0  0  0  0  0  0  0  0  0  0  0  0
    7.8450    2.4100    0.0000 C   0  0  0  0  0  0  0  0  0  0  0  0
    7.9750    3.2250    0.0000 C   0  0  0  0  0  0  0  0  0  0  0  0
    4.0710    3.3020    0.0000 C   0  0  0  0  0  0  0  0  0  0  0  0
    4.1160   -0.7050    0.0000 C   0  0  0  0  0  0  0  0  0  0  0  0
    3.8600   -1.4890    0.0000 C   0  0  0  0  0  0  0  0  0  0  0  0
    3.0790   -1.7400    0.0000 C   0  0  0  0  0  0  0  0  0  0  0  0
    3.0790   -2.5650    0.0000 C   0  0  0  0  0  0  0  0  0  0  0  0
    2.3640   -1.3280    0.0000 C   0  0  0  0  0  0  0  0  0  0  0  0
    2.3640   -2.9780    0.0000 C   0  0  0  0  0  0  0  0  0  0  0  0
    4.1160   -3.6010    0.0000 C   0  0  0  0  0  0  0  0  0  0  0  0
    1.6500   -1.7400    0.0000 C   0  0  0  0  0  0  0  0  0  0  0  0
    1.6500   -2.5650    0.0000 C   0  0  0  0  0  0  0  0  0  0  0  0
  1 15  2  0  0  0  0
  2  6  1  0  0  0  0
  2  7  1  0  0  0  0
  2 14  1  0  0  0  0
  3 10  1  0  0  0  0
  3 15  1  0  0  0  0
  4  5  1  0  0  0  0
  4 16  2  0  0  0  0
  5 18  1  0  0  0  0
  5 21  1  0  0  0  0
  6  8  1  0  0  0  0
  6 11  1  0  0  0  0
  7  9  1  0  0  0  0
  7 12  1  0  0  0  0
  8 10  1  0  0  0  0
  9 10  1  0  0  0  0
 11 13  1  0  0  0  0
 12 13  1  0  0  0  0
 15 16  1  0  0  0  0
 16 17  1  0  0  0  0
 17 18  2  0  0  0  0
 17 19  1  0  0  0  0
 18 20  1  0  0  0  0
 19 22  2  0  0  0  0
 20 23  2  0  0  0  0
 22 23  1  0  0  0  0
M  END
>  <DATABASE_ID>
DB00889

>  <DATABASE_NAME>
drugbank

>  <SMILES>
O=C(NC1CC2N(C(C1)CCC2)C)c1nn(c2c1cccc2)C

>  <INCHI_IDENTIFIER>
InChI=1S/C18H24N4O/c1-21-13-6-5-7-14(21)11-12(10-13)19-18(23)17-15-8-3-4-9-16(15)22(2)20-17/h3-4,8-9,12-14H,5-7,10-11H2,1-2H3,(H,19,23)

>  <INCHI_KEY>
InChIKey=MFWNKCLOYSRHCJ-UHFFFAOYSA-N

>  <JCHEM_ACCEPTOR_COUNT>
3

>  <JCHEM_AVERAGE_POLARIZABILITY>
35.392113

>  <JCHEM_BIOAVAILABILITY>
1

>  <JCHEM_DONOR_COUNT>
1

>  <JCHEM_EXACT_MASS>
312.19501

>  <JCHEM_FORMAL_CHARGE>
0

>  <JCHEM_FORMULA>
C18H24N4O

>  <JCHEM_GHOSE_FILTER>
1

>  <JCHEM_IUPAC>
1-methyl-N-{9-methyl-9-azabicyclo[3.3.1]nonan-3-yl}-1H-indazole-3-carboxamide

>  <ALOGPS_LOGP>
2.6400001

>  <JCHEM_LOGP>
1.8768568

>  <ALOGPS_LOGS>
-2.8599999

>  <JCHEM_MASS>
312.40939

>  <JCHEM_MDDR_LIKE_RULE>
0

>  <JCHEM_NUMBER_OF_RINGS>
4

>  <JCHEM_PHYSIOLOGICAL_CHARGE>
1

>  <JCHEM_PKA_STRONGEST_ACIDIC>
14.750399

>  <JCHEM_PKA_STRONGEST_BASIC>
9.0002594

>  <JCHEM_POLAR_SURFACE_AREA>
50.16

>  <JCHEM_REFRACTIVITY>
101.8257

>  <JCHEM_ROTATABLE_BOND_COUNT>
2

>  <JCHEM_RULE_OF_FIVE>
1

>  <ALOGPS_SOLUBILITY>
4.34e-01 g/l

>  <JCHEM_TRADITIONAL_IUPAC>
1-methyl-N-{9-methyl-9-azabicyclo[3.3.1]nonan-3-yl}indazole-3-carboxamide

>  <JCHEM_VEBER_RULE>
0

>  <DRUGBANK_ID>
DB00889

>  <DRUG_GROUPS>
approved; investigational

>  <GENERIC_NAME>
Granisetron

>  <SYNONYMS>
Granisetronum

>  <BRANDS>
Granisol; Kytril; Sancuso

>  <SALTS>
Granisetron Hydrochloride

$$$$
Testolactone
 OpenBabel02121510022D

 25 28  0  0  1  0  0  0  0  0999 V2000
    2.3510   -2.2610    0.0000 O   0  0  0  0  0  0  0  0  0  0  0  0
    3.0600   -3.4720    0.0000 O   0  0  0  0  0  0  0  0  0  0  0  0
    2.3220    3.4720    0.0000 O   0  0  0  0  0  0  0  0  0  0  0  0
    3.0500   -0.2480    0.0000 C   0  0  2  0  0  0  0  0  0  0  0  0
    2.3640    0.1480    0.0000 C   0  0  1  0  0  0  0  0  0  0  0  0
    3.0500   -1.0400    0.0000 C   0  0  1  0  0  0  0  0  0  0  0  0
    2.3640   -1.4360    0.0000 C   0  0  2  0  0  0  0  0  0  0  0  0
    2.3510    0.9720    0.0000 C   0  0  1  0  0  0  0  0  0  0  0  0
    1.6780   -0.2480    0.0000 C   0  0  0  0  0  0  0  0  0  0  0  0
    1.6780   -1.0400    0.0000 C   0  0  0  0  0  0  0  0  0  0  0  0
    3.7710    0.1530    0.0000 C   0  0  0  0  0  0  0  0  0  0  0  0
    3.7710   -1.4420    0.0000 C   0  0  0  0  0  0  0  0  0  0  0  0
    3.0630    1.3900    0.0000 C   0  0  0  0  0  0  0  0  0  0  0  0
    3.7770    0.9780    0.0000 C   0  0  0  0  0  0  0  0  0  0  0  0
    1.6780   -1.8330    0.0000 C   0  0  0  0  0  0  0  0  0  0  0  0
    1.6680    0.5710    0.0000 C   0  0  0  0  0  0  0  0  0  0  0  0
    1.5970    1.3850    0.0000 C   0  0  0  0  0  0  0  0  0  0  0  0
    3.7770   -2.2670    0.0000 C   0  0  0  0  0  0  0  0  0  0  0  0
    3.0630   -2.6800    0.0000 C   0  0  0  0  0  0  0  0  0  0  0  0
    3.0690    2.2500    0.0000 C   0  0  0  0  0  0  0  0  0  0  0  0
    1.5840    2.2440    0.0000 C   0  0  0  0  0  0  0  0  0  0  0  0
    2.3250    2.6800    0.0000 C   0  0  0  0  0  0  0  0  0  0  0  0
    3.5960   -0.5700    0.0000 H   0  0  0  0  0  0  0  0  0  0  0  0
    1.8130    0.4600    0.0000 H   0  0  0  0  0  0  0  0  0  0  0  0
    3.5960   -0.7200    0.0000 H   0  0  0  0  0  0  0  0  0  0  0  0
  1  7  1  0  0  0  0
  1 19  1  0  0  0  0
  2 19  2  0  0  0  0
  3 22  2  0  0  0  0
  4  5  1  0  0  0  0
  4  6  1  0  0  0  0
  4 11  1  0  0  0  0
  4 23  1  6  0  0  0
  5  8  1  0  0  0  0
  5  9  1  0  0  0  0
  5 24  1  1  0  0  0
  6  7  1  0  0  0  0
  6 12  1  0  0  0  0
  6 25  1  1  0  0  0
  7 10  1  0  0  0  0
  7 15  1  6  0  0  0
  8 13  1  0  0  0  0
  8 16  1  6  0  0  0
  8 17  1  0  0  0  0
  9 10  1  0  0  0  0
 11 14  1  0  0  0  0
 12 18  1  0  0  0  0
 13 14  1  0  0  0  0
 13 20  2  0  0  0  0
 17 21  2  0  0  0  0
 18 19  1  0  0  0  0
 20 22  1  0  0  0  0
 21 22  1  0  0  0  0
M  END
>  <DATABASE_ID>
DB00894

>  <DATABASE_NAME>
drugbank

>  <SMILES>
O1[C@@]2([C@H]([C@H]3[C@H](CC2)[C@@]2(C(=CC(=O)C=C2)CC3)C)CCC1=O)C

>  <INCHI_IDENTIFIER>
InChI=1S/C19H24O3/c1-18-9-7-13(20)11-12(18)3-4-14-15(18)8-10-19(2)16(14)5-6-17(21)22-19/h7,9,11,14-16H,3-6,8,10H2,1-2H3/t14-,15+,16+,18+,19+/m1/s1

>  <INCHI_KEY>
InChIKey=BPEWUONYVDABNZ-DZBHQSCQSA-N

>  <JCHEM_ACCEPTOR_COUNT>
2

>  <JCHEM_AVERAGE_POLARIZABILITY>
33.416012

>  <JCHEM_BIOAVAILABILITY>
1

>  <JCHEM_DONOR_COUNT>
0

>  <JCHEM_EXACT_MASS>
300.17255

>  <JCHEM_FORMAL_CHARGE>
0

>  <JCHEM_FORMULA>
C19H24O3

>  <JCHEM_GHOSE_FILTER>
1

>  <JCHEM_IUPAC>
(1R,2S,7S,10S,11R)-7,11-dimethyl-6-oxatetracyclo[8.8.0.0^{2,7}.0^{11,16}]octadeca-12,15-diene-5,14-dione

>  <ALOGPS_LOGP>
2.3299999

>  <JCHEM_LOGP>
3.2313275

>  <ALOGPS_LOGS>
-4.1199999

>  <JCHEM_MASS>
300.39209

>  <JCHEM_MDDR_LIKE_RULE>
0

>  <JCHEM_NUMBER_OF_RINGS>
4

>  <JCHEM_PHYSIOLOGICAL_CHARGE>
0

>  <JCHEM_PKA_STRONGEST_ACIDIC>
18.836205

>  <JCHEM_PKA_STRONGEST_BASIC>
-4.9983368

>  <JCHEM_POLAR_SURFACE_AREA>
43.369999

>  <JCHEM_REFRACTIVITY>
85.791

>  <JCHEM_ROTATABLE_BOND_COUNT>
0

>  <JCHEM_RULE_OF_FIVE>
1

>  <ALOGPS_SOLUBILITY>
2.30e-02 g/l

>  <JCHEM_TRADITIONAL_IUPAC>
testolactone

>  <JCHEM_VEBER_RULE>
0

>  <DRUGBANK_ID>
DB00894

>  <DRUG_GROUPS>
approved

>  <GENERIC_NAME>
Testolactone

>  <SYNONYMS>
Testolactona; Testolactonum; Testolattone

>  <BRANDS>
Fludestrin; Teslac

$$$$
Triazolam
 OpenBabel02121510022D

 23 26  0  0  0  0  0  0  0  0999 V2000
    1.6500   -0.2320    0.0000 Cl  0  0  0  0  0  0  0  0  0  0  0  0
    5.3330    1.8440    0.0000 Cl  0  0  0  0  0  0  0  0  0  0  0  0
    4.8160   -1.3270    0.0000 N   0  0  0  0  0  0  0  0  0  0  0  0
    5.2280    0.4800    0.0000 N   0  0  0  0  0  0  0  0  0  0  0  0
    6.1240   -1.5630    0.0000 N   0  0  0  0  0  0  0  0  0  0  0  0
    5.7350   -2.2850    0.0000 N   0  0  0  0  0  0  0  0  0  0  0  0
    4.0730   -0.9690    0.0000 C   0  0  0  0  0  0  0  0  0  0  0  0
    3.8890   -0.1640    0.0000 C   0  0  0  0  0  0  0  0  0  0  0  0
    5.5590   -0.9690    0.0000 C   0  0  0  0  0  0  0  0  0  0  0  0
    4.4030    0.4800    0.0000 C   0  0  0  0  0  0  0  0  0  0  0  0
    5.7430   -0.1640    0.0000 C   0  0  0  0  0  0  0  0  0  0  0  0
    4.9280   -2.1390    0.0000 C   0  0  0  0  0  0  0  0  0  0  0  0
    3.4520   -1.5630    0.0000 C   0  0  0  0  0  0  0  0  0  0  0  0
    4.0450    1.2240    0.0000 C   0  0  0  0  0  0  0  0  0  0  0  0
    3.0720    0.1010    0.0000 C   0  0  0  0  0  0  0  0  0  0  0  0
    2.6290   -1.3160    0.0000 C   0  0  0  0  0  0  0  0  0  0  0  0
    2.4370   -0.4780    0.0000 C   0  0  0  0  0  0  0  0  0  0  0  0
    4.3330   -2.7100    0.0000 C   0  0  0  0  0  0  0  0  0  0  0  0
    4.5100    1.9050    0.0000 C   0  0  0  0  0  0  0  0  0  0  0  0
    3.2230    1.2850    0.0000 C   0  0  0  0  0  0  0  0  0  0  0  0
    4.1520    2.6490    0.0000 C   0  0  0  0  0  0  0  0  0  0  0  0
    2.8650    2.0290    0.0000 C   0  0  0  0  0  0  0  0  0  0  0  0
    3.3300    2.7100    0.0000 C   0  0  0  0  0  0  0  0  0  0  0  0
  1 17  1  0  0  0  0
  2 19  1  0  0  0  0
  3  7  1  0  0  0  0
  3  9  1  0  0  0  0
  3 12  1  0  0  0  0
  4 10  2  0  0  0  0
  4 11  1  0  0  0  0
  5  6  1  0  0  0  0
  5  9  2  0  0  0  0
  6 12  2  0  0  0  0
  7  8  2  0  0  0  0
  7 13  1  0  0  0  0
  8 10  1  0  0  0  0
  8 15  1  0  0  0  0
  9 11  1  0  0  0  0
 10 14  1  0  0  0  0
 12 18  1  0  0  0  0
 13 16  2  0  0  0  0
 14 19  2  0  0  0  0
 14 20  1  0  0  0  0
 15 17  2  0  0  0  0
 16 17  1  0  0  0  0
 19 21  1  0  0  0  0
 20 22  2  0  0  0  0
 21 23  2  0  0  0  0
 22 23  1  0  0  0  0
M  END
>  <DATABASE_ID>
DB00897

>  <DATABASE_NAME>
drugbank

>  <SMILES>
Clc1ccccc1C1=NCc2n(-c3c1cc(Cl)cc3)c(nn2)C

>  <INCHI_IDENTIFIER>
InChI=1S/C17H12Cl2N4/c1-10-21-22-16-9-20-17(12-4-2-3-5-14(12)19)13-8-11(18)6-7-15(13)23(10)16/h2-8H,9H2,1H3

>  <INCHI_KEY>
InChIKey=JOFWLTCLBGQGBO-UHFFFAOYSA-N

>  <JCHEM_ACCEPTOR_COUNT>
3

>  <JCHEM_AVERAGE_POLARIZABILITY>
34.187801

>  <JCHEM_BIOAVAILABILITY>
1

>  <JCHEM_DONOR_COUNT>
0

>  <JCHEM_EXACT_MASS>
342.04391

>  <JCHEM_FORMAL_CHARGE>
0

>  <JCHEM_FORMULA>
C17H12Cl2N4

>  <JCHEM_GHOSE_FILTER>
1

>  <JCHEM_IUPAC>
12-chloro-9-(2-chlorophenyl)-3-methyl-2,4,5,8-tetraazatricyclo[8.4.0.0^{2,6}]tetradeca-1(10),3,5,8,11,13-hexaene

>  <ALOGPS_LOGP>
2.9400001

>  <JCHEM_LOGP>
2.8921001

>  <ALOGPS_LOGS>
-4.27

>  <JCHEM_MASS>
343.20999

>  <JCHEM_MDDR_LIKE_RULE>
0

>  <JCHEM_NUMBER_OF_RINGS>
4

>  <JCHEM_PHYSIOLOGICAL_CHARGE>
0

>  <JCHEM_PKA_STRONGEST_ACIDIC>
18.078356

>  <JCHEM_PKA_STRONGEST_BASIC>
4.3222604

>  <JCHEM_POLAR_SURFACE_AREA>
43.07

>  <JCHEM_REFRACTIVITY>
103.6838

>  <JCHEM_ROTATABLE_BOND_COUNT>
1

>  <JCHEM_RULE_OF_FIVE>
1

>  <ALOGPS_SOLUBILITY>
1.83e-02 g/l

>  <JCHEM_TRADITIONAL_IUPAC>
triazolam

>  <JCHEM_VEBER_RULE>
0

>  <DRUGBANK_ID>
DB00897

>  <DRUG_GROUPS>
approved

>  <GENERIC_NAME>
Triazolam

>  <SYNONYMS>
Triazolam; Triazolam; Triazolam; Triazolamum

>  <BRANDS>
Apo-Triazo; Arring; Asasion; Ascomarna; Halcion; Songar

$$$$
Ethanol
 OpenBabel02121510022D

  3  2  0  0  0  0  0  0  0  0999 V2000
    2.0930   -0.2060    0.0000 O   0  0  0  0  0  0  0  0  0  0  0  0
    2.8080    0.2060    0.0000 C   0  0  0  0  0  0  0  0  0  0  0  0
    3.5220   -0.2060    0.0000 C   0  0  0  0  0  0  0  0  0  0  0  0
  1  2  1  0  0  0  0
  2  3  1  0  0  0  0
M  END
>  <DATABASE_ID>
DB00898

>  <DATABASE_NAME>
drugbank

>  <SMILES>
OCC

>  <INCHI_IDENTIFIER>
InChI=1S/C2H6O/c1-2-3/h3H,2H2,1H3

>  <INCHI_KEY>
InChIKey=LFQSCWFLJHTTHZ-UHFFFAOYSA-N

>  <JCHEM_ACCEPTOR_COUNT>
1

>  <JCHEM_AVERAGE_POLARIZABILITY>
5.3037629

>  <JCHEM_BIOAVAILABILITY>
1

>  <JCHEM_DONOR_COUNT>
1

>  <JCHEM_EXACT_MASS>
46.041866

>  <JCHEM_FORMAL_CHARGE>
0

>  <JCHEM_FORMULA>
C2H6O

>  <JCHEM_GHOSE_FILTER>
0

>  <JCHEM_IUPAC>
ethanol

>  <ALOGPS_LOGP>
-0.40000001

>  <JCHEM_LOGP>
-0.16176911

>  <ALOGPS_LOGS>
1.1

>  <JCHEM_MASS>
46.068401

>  <JCHEM_MDDR_LIKE_RULE>
0

>  <JCHEM_NUMBER_OF_RINGS>
0

>  <JCHEM_PHYSIOLOGICAL_CHARGE>
0

>  <JCHEM_PKA_STRONGEST_ACIDIC>
16.470615

>  <JCHEM_PKA_STRONGEST_BASIC>
-2.1555529

>  <JCHEM_POLAR_SURFACE_AREA>
20.23

>  <JCHEM_REFRACTIVITY>
13.0099

>  <JCHEM_ROTATABLE_BOND_COUNT>
0

>  <JCHEM_RULE_OF_FIVE>
1

>  <ALOGPS_SOLUBILITY>
5.79e+02 g/l

>  <JCHEM_TRADITIONAL_IUPAC>
ethyl alcohol

>  <JCHEM_VEBER_RULE>
1

>  <DRUGBANK_ID>
DB00898

>  <DRUG_GROUPS>
approved

>  <GENERIC_NAME>
Ethanol

>  <SYNONYMS>
Alcohol; Alcohol etílico; Alcool éthylique; Alkohol; Ethyl Alcohol; Hydroxyethane; Methylcarbinol

>  <BRANDS>
Dehydrated ethanol

$$$$
Didanosine
 OpenBabel02121510022D

 17 19  0  0  1  0  0  0  0  0999 V2000
    3.6320    0.6080    0.0000 O   0  0  0  0  0  0  0  0  0  0  0  0
    4.4180    2.6720    0.0000 O   0  0  0  0  0  0  0  0  0  0  0  0
    2.3640   -3.1580    0.0000 O   0  0  0  0  0  0  0  0  0  0  0  0
    3.8600   -0.8450    0.0000 N   0  0  0  0  0  0  0  0  0  0  0  0
    2.3640   -0.6830    0.0000 N   0  0  0  0  0  0  0  0  0  0  0  0
    3.8600   -2.1720    0.0000 N   0  0  0  0  0  0  0  0  0  0  0  0
    1.6500   -1.9210    0.0000 N   0  0  0  0  0  0  0  0  0  0  0  0
    4.1160   -0.0600    0.0000 C   0  0  1  0  0  0  0  0  0  0  0  0
    4.9010    0.1930    0.0000 C   0  0  0  0  0  0  0  0  0  0  0  0
    4.9020    1.0180    0.0000 C   0  0  0  0  0  0  0  0  0  0  0  0
    4.1180    1.2740    0.0000 C   0  0  1  0  0  0  0  0  0  0  0  0
    3.8650    2.0600    0.0000 C   0  0  0  0  0  0  0  0  0  0  0  0
    3.0790   -1.0960    0.0000 C   0  0  0  0  0  0  0  0  0  0  0  0
    4.3410   -1.5080    0.0000 C   0  0  0  0  0  0  0  0  0  0  0  0
    3.0790   -1.9210    0.0000 C   0  0  0  0  0  0  0  0  0  0  0  0
    2.3640   -2.3330    0.0000 C   0  0  0  0  0  0  0  0  0  0  0  0
    1.6500   -1.0960    0.0000 C   0  0  0  0  0  0  0  0  0  0  0  0
  1  8  1  0  0  0  0
  1 11  1  0  0  0  0
  2 12  1  0  0  0  0
  3 16  2  0  0  0  0
  4 13  1  0  0  0  0
  4 14  1  0  0  0  0
  5 13  1  0  0  0  0
  5 17  1  0  0  0  0
  6 14  2  0  0  0  0
  6 15  1  0  0  0  0
  7 16  1  0  0  0  0
  7 17  2  0  0  0  0
  8  4  1  6  0  0  0
  8  9  1  0  0  0  0
  9 10  1  0  0  0  0
 10 11  1  0  0  0  0
 11 12  1  6  0  0  0
 13 15  2  0  0  0  0
 15 16  1  0  0  0  0
M  END
>  <DATABASE_ID>
DB00900

>  <DATABASE_NAME>
drugbank

>  <SMILES>
O1[C@@H](CC[C@@H]1n1c2NC=NC(=O)c2nc1)CO

>  <INCHI_IDENTIFIER>
InChI=1S/C10H12N4O3/c15-3-6-1-2-7(17-6)14-5-13-8-9(14)11-4-12-10(8)16/h4-7,15H,1-3H2,(H,11,12,16)/t6-,7+/m0/s1

>  <INCHI_KEY>
InChIKey=BXZVVICBKDXVGW-NKWVEPMBSA-N

>  <JCHEM_ACCEPTOR_COUNT>
6

>  <JCHEM_AVERAGE_POLARIZABILITY>
22.897495

>  <JCHEM_BIOAVAILABILITY>
1

>  <JCHEM_DONOR_COUNT>
2

>  <JCHEM_EXACT_MASS>
236.09094

>  <JCHEM_FORMAL_CHARGE>
0

>  <JCHEM_FORMULA>
C10H12N4O3

>  <JCHEM_GHOSE_FILTER>
1

>  <JCHEM_IUPAC>
9-[(2R,5S)-5-(hydroxymethyl)oxolan-2-yl]-6,9-dihydro-3H-purin-6-one

>  <ALOGPS_LOGP>
-0.99000001

>  <JCHEM_LOGP>
-0.35163641

>  <ALOGPS_LOGS>
-1.55

>  <JCHEM_MASS>
236.22729

>  <JCHEM_MDDR_LIKE_RULE>
0

>  <JCHEM_NUMBER_OF_RINGS>
3

>  <JCHEM_PHYSIOLOGICAL_CHARGE>
-1

>  <JCHEM_PKA>
14.672762

>  <JCHEM_PKA_STRONGEST_ACIDIC>
6.9434805

>  <JCHEM_PKA_STRONGEST_BASIC>
2.754142

>  <JCHEM_POLAR_SURFACE_AREA>
88.739998

>  <JCHEM_REFRACTIVITY>
58.5938

>  <JCHEM_ROTATABLE_BOND_COUNT>
2

>  <JCHEM_RULE_OF_FIVE>
1

>  <ALOGPS_SOLUBILITY>
6.58e+00 g/l

>  <JCHEM_TRADITIONAL_IUPAC>
didanosine

>  <JCHEM_VEBER_RULE>
0

>  <DRUGBANK_ID>
DB00900

>  <DRUG_GROUPS>
approved

>  <GENERIC_NAME>
Didanosine

>  <SYNONYMS>
Dideoxyinosine

>  <BRANDS>
Videx; Videx EC

$$$$
Ethacrynic acid
 OpenBabel02121510022D

 19 19  0  0  0  0  0  0  0  0999 V2000
    1.6500    1.0810    0.0000 Cl  0  0  0  0  0  0  0  0  0  0  0  0
    1.6500   -0.5690    0.0000 Cl  0  0  0  0  0  0  0  0  0  0  0  0
    3.0790   -1.3940    0.0000 O   0  0  0  0  0  0  0  0  0  0  0  0
    2.3640    2.3180    0.0000 O   0  0  0  0  0  0  0  0  0  0  0  0
    4.5080   -3.0440    0.0000 O   0  0  0  0  0  0  0  0  0  0  0  0
    3.0790   -3.0440    0.0000 O   0  0  0  0  0  0  0  0  0  0  0  0
    3.0790    1.0810    0.0000 C   0  0  0  0  0  0  0  0  0  0  0  0
    3.7940    2.3180    0.0000 C   0  0  0  0  0  0  0  0  0  0  0  0
    3.0790    1.9060    0.0000 C   0  0  0  0  0  0  0  0  0  0  0  0
    3.7940    3.1430    0.0000 C   0  0  0  0  0  0  0  0  0  0  0  0
    2.3640    0.6680    0.0000 C   0  0  0  0  0  0  0  0  0  0  0  0
    3.7940    0.6680    0.0000 C   0  0  0  0  0  0  0  0  0  0  0  0
    3.0790   -0.5690    0.0000 C   0  0  0  0  0  0  0  0  0  0  0  0
    2.3640   -0.1570    0.0000 C   0  0  0  0  0  0  0  0  0  0  0  0
    3.7940   -0.1570    0.0000 C   0  0  0  0  0  0  0  0  0  0  0  0
    4.5080    3.5560    0.0000 C   0  0  0  0  0  0  0  0  0  0  0  0
    4.5080    1.9060    0.0000 C   0  0  0  0  0  0  0  0  0  0  0  0
    3.7940   -1.8070    0.0000 C   0  0  0  0  0  0  0  0  0  0  0  0
    3.7940   -2.6320    0.0000 C   0  0  0  0  0  0  0  0  0  0  0  0
  1 11  1  0  0  0  0
  2 14  1  0  0  0  0
  3 13  1  0  0  0  0
  3 18  1  0  0  0  0
  4  9  2  0  0  0  0
  5 19  1  0  0  0  0
  6 19  2  0  0  0  0
  7  9  1  0  0  0  0
  7 11  2  0  0  0  0
  7 12  1  0  0  0  0
  8  9  1  0  0  0  0
  8 10  1  0  0  0  0
  8 17  2  0  0  0  0
 10 16  1  0  0  0  0
 11 14  1  0  0  0  0
 12 15  2  0  0  0  0
 13 14  2  0  0  0  0
 13 15  1  0  0  0  0
 18 19  1  0  0  0  0
M  END
>  <DATABASE_ID>
DB00903

>  <DATABASE_NAME>
drugbank

>  <SMILES>
Clc1c(Cl)c(OCC(O)=O)ccc1C(=O)C(CC)=C

>  <INCHI_IDENTIFIER>
InChI=1S/C13H12Cl2O4/c1-3-7(2)13(18)8-4-5-9(12(15)11(8)14)19-6-10(16)17/h4-5H,2-3,6H2,1H3,(H,16,17)

>  <INCHI_KEY>
InChIKey=AVOLMBLBETYQHX-UHFFFAOYSA-N

>  <JCHEM_ACCEPTOR_COUNT>
4

>  <JCHEM_AVERAGE_POLARIZABILITY>
28.569603

>  <JCHEM_BIOAVAILABILITY>
1

>  <JCHEM_DONOR_COUNT>
1

>  <JCHEM_EXACT_MASS>
302.01126

>  <JCHEM_FORMAL_CHARGE>
0

>  <JCHEM_FORMULA>
C13H12Cl2O4

>  <JCHEM_GHOSE_FILTER>
1

>  <JCHEM_IUPAC>
2-[2,3-dichloro-4-(2-methylidenebutanoyl)phenoxy]acetic acid

>  <ALOGPS_LOGP>
3.4200001

>  <JCHEM_LOGP>
3.6557069

>  <ALOGPS_LOGS>
-4.1900001

>  <JCHEM_MASS>
303.138

>  <JCHEM_MDDR_LIKE_RULE>
0

>  <JCHEM_NUMBER_OF_RINGS>
1

>  <JCHEM_PHYSIOLOGICAL_CHARGE>
-1

>  <JCHEM_PKA_STRONGEST_ACIDIC>
2.7969339

>  <JCHEM_PKA_STRONGEST_BASIC>
-4.9622231

>  <JCHEM_POLAR_SURFACE_AREA>
63.599998

>  <JCHEM_REFRACTIVITY>
72.223999

>  <JCHEM_ROTATABLE_BOND_COUNT>
6

>  <JCHEM_RULE_OF_FIVE>
1

>  <ALOGPS_SOLUBILITY>
1.94e-02 g/l

>  <JCHEM_TRADITIONAL_IUPAC>
ethacrynic acid

>  <JCHEM_VEBER_RULE>
0

>  <DRUGBANK_ID>
DB00903

>  <DRUG_GROUPS>
approved

>  <GENERIC_NAME>
Ethacrynic acid

>  <SYNONYMS>
Etacrinic acid; Etacrynic acid; Ethacrynate; Methylenebutyrylphenoxyacetic acid

>  <BRANDS>
Crinuryl; Edecril; Edecrin; Hydromedin; Reomax; Taladren

$$$$
Ondansetron
 OpenBabel02121510022D

 22 25  0  0  1  0  0  0  0  0999 V2000
    4.2710   -1.2750    0.0000 O   0  0  0  0  0  0  0  0  0  0  0  0
    3.5860    1.3160    0.0000 N   0  0  0  0  0  0  0  0  0  0  0  0
    6.6360   -0.7880    0.0000 N   0  0  0  0  0  0  0  0  0  0  0  0
    7.9100   -0.9270    0.0000 N   0  0  0  0  0  0  0  0  0  0  0  0
    5.3330   -0.3590    0.0000 C   0  0  3  0  0  0  0  0  0  0  0  0
    5.5880    0.4250    0.0000 C   0  0  0  0  0  0  0  0  0  0  0  0
    5.0310    1.0340    0.0000 C   0  0  0  0  0  0  0  0  0  0  0  0
    4.2270    0.8500    0.0000 C   0  0  0  0  0  0  0  0  0  0  0  0
    3.9820    0.0970    0.0000 C   0  0  0  0  0  0  0  0  0  0  0  0
    4.5250   -0.5250    0.0000 C   0  0  0  0  0  0  0  0  0  0  0  0
    5.8610   -0.9500    0.0000 C   0  0  0  0  0  0  0  0  0  0  0  0
    3.1900    0.0970    0.0000 C   0  0  0  0  0  0  0  0  0  0  0  0
    2.9450    0.8500    0.0000 C   0  0  0  0  0  0  0  0  0  0  0  0
    3.5860    2.1080    0.0000 C   0  0  0  0  0  0  0  0  0  0  0  0
    2.6480   -0.5250    0.0000 C   0  0  0  0  0  0  0  0  0  0  0  0
    2.1410    1.0340    0.0000 C   0  0  0  0  0  0  0  0  0  0  0  0
    7.2230   -1.3210    0.0000 C   0  0  0  0  0  0  0  0  0  0  0  0
    6.9610   -0.0660    0.0000 C   0  0  0  0  0  0  0  0  0  0  0  0
    1.8390   -0.3590    0.0000 C   0  0  0  0  0  0  0  0  0  0  0  0
    1.5840    0.4250    0.0000 C   0  0  0  0  0  0  0  0  0  0  0  0
    7.7490   -0.1520    0.0000 C   0  0  0  0  0  0  0  0  0  0  0  0
    7.1370   -2.1080    0.0000 C   0  0  0  0  0  0  0  0  0  0  0  0
  1 10  2  0  0  0  0
  2  8  1  0  0  0  0
  2 13  1  0  0  0  0
  2 14  1  0  0  0  0
  3 11  1  0  0  0  0
  3 17  1  0  0  0  0
  3 18  1  0  0  0  0
  4 17  2  0  0  0  0
  4 21  1  0  0  0  0
  5  6  1  0  0  0  0
  5 10  1  0  0  0  0
  5 11  1  0  0  0  0
  6  7  1  0  0  0  0
  7  8  1  0  0  0  0
  8  9  2  0  0  0  0
  9 10  1  0  0  0  0
  9 12  1  0  0  0  0
 12 13  2  0  0  0  0
 12 15  1  0  0  0  0
 13 16  1  0  0  0  0
 15 19  2  0  0  0  0
 16 20  2  0  0  0  0
 17 22  1  0  0  0  0
 18 21  2  0  0  0  0
 19 20  1  0  0  0  0
M  END
>  <DATABASE_ID>
DB00904

>  <DATABASE_NAME>
drugbank

>  <SMILES>
O=C1c2c(n(c3c2cccc3)C)CCC1Cn1ccnc1C

>  <INCHI_IDENTIFIER>
InChI=1S/C18H19N3O/c1-12-19-9-10-21(12)11-13-7-8-16-17(18(13)22)14-5-3-4-6-15(14)20(16)2/h3-6,9-10,13H,7-8,11H2,1-2H3

>  <INCHI_KEY>
InChIKey=FELGMEQIXOGIFQ-UHFFFAOYSA-N

>  <JCHEM_ACCEPTOR_COUNT>
2

>  <JCHEM_AVERAGE_POLARIZABILITY>
33.160381

>  <JCHEM_BIOAVAILABILITY>
1

>  <JCHEM_DONOR_COUNT>
0

>  <JCHEM_EXACT_MASS>
293.1528

>  <JCHEM_FORMAL_CHARGE>
0

>  <JCHEM_FORMULA>
C18H19N3O

>  <JCHEM_GHOSE_FILTER>
1

>  <JCHEM_IUPAC>
9-methyl-3-[(2-methyl-1H-imidazol-1-yl)methyl]-2,3,4,9-tetrahydro-1H-carbazol-4-one

>  <ALOGPS_LOGP>
2.5599999

>  <JCHEM_LOGP>
2.3499651

>  <ALOGPS_LOGS>
-3.0699999

>  <JCHEM_MASS>
293.36301

>  <JCHEM_MDDR_LIKE_RULE>
0

>  <JCHEM_NUMBER_OF_RINGS>
4

>  <JCHEM_PHYSIOLOGICAL_CHARGE>
1

>  <JCHEM_PKA_STRONGEST_ACIDIC>
15.385697

>  <JCHEM_PKA_STRONGEST_BASIC>
7.3443141

>  <JCHEM_POLAR_SURFACE_AREA>
39.82

>  <JCHEM_REFRACTIVITY>
86.779503

>  <JCHEM_ROTATABLE_BOND_COUNT>
2

>  <JCHEM_RULE_OF_FIVE>
1

>  <ALOGPS_SOLUBILITY>
2.48e-01 g/l

>  <JCHEM_TRADITIONAL_IUPAC>
ondansetron

>  <JCHEM_VEBER_RULE>
1

>  <DRUGBANK_ID>
DB00904

>  <DRUG_GROUPS>
approved

>  <GENERIC_NAME>
Ondansetron

>  <BRANDS>
Zofran; Zofran ODT; Zophren; Zuplenz

>  <SALTS>
Ondansetron hydrochloride dihydrate

$$$$
Tiagabine
 OpenBabel02121510022D

 25 27  0  0  1  0  0  0  0  0999 V2000
    6.0230   -0.3230    0.0000 S   0  0  0  0  0  0  0  0  0  0  0  0
    5.8900   -2.8660    0.0000 S   0  0  0  0  0  0  0  0  0  0  0  0
    2.3640    3.3940    0.0000 O   0  0  0  0  0  0  0  0  0  0  0  0
    1.6500    2.1570    0.0000 O   0  0  0  0  0  0  0  0  0  0  0  0
    3.7940    0.9190    0.0000 N   0  0  0  0  0  0  0  0  0  0  0  0
    3.0790    2.1570    0.0000 C   0  0  1  0  0  0  0  0  0  0  0  0
    3.0790    1.3320    0.0000 C   0  0  0  0  0  0  0  0  0  0  0  0
    3.7940    2.5690    0.0000 C   0  0  0  0  0  0  0  0  0  0  0  0
    4.5080    2.1570    0.0000 C   0  0  0  0  0  0  0  0  0  0  0  0
    4.5080    1.3320    0.0000 C   0  0  0  0  0  0  0  0  0  0  0  0
    3.7940    0.0940    0.0000 C   0  0  0  0  0  0  0  0  0  0  0  0
    4.5080   -0.3180    0.0000 C   0  0  0  0  0  0  0  0  0  0  0  0
    2.3640    2.5690    0.0000 C   0  0  0  0  0  0  0  0  0  0  0  0
    4.5080   -1.1430    0.0000 C   0  0  0  0  0  0  0  0  0  0  0  0
    5.2220   -1.5560    0.0000 C   0  0  0  0  0  0  0  0  0  0  0  0
    5.9370   -1.1430    0.0000 C   0  0  0  0  0  0  0  0  0  0  0  0
    5.2220   -2.3810    0.0000 C   0  0  0  0  0  0  0  0  0  0  0  0
    6.6910   -1.4790    0.0000 C   0  0  0  0  0  0  0  0  0  0  0  0
    4.5550   -2.8660    0.0000 C   0  0  0  0  0  0  0  0  0  0  0  0
    7.2430   -0.8660    0.0000 C   0  0  0  0  0  0  0  0  0  0  0  0
    4.8100   -3.6500    0.0000 C   0  0  0  0  0  0  0  0  0  0  0  0
    6.8620   -2.2860    0.0000 C   0  0  0  0  0  0  0  0  0  0  0  0
    3.7700   -2.6110    0.0000 C   0  0  0  0  0  0  0  0  0  0  0  0
    6.8300   -0.1510    0.0000 C   0  0  0  0  0  0  0  0  0  0  0  0
    5.6350   -3.6500    0.0000 C   0  0  0  0  0  0  0  0  0  0  0  0
  1 16  1  0  0  0  0
  1 24  1  0  0  0  0
  2 17  1  0  0  0  0
  2 25  1  0  0  0  0
  3 13  1  0  0  0  0
  4 13  2  0  0  0  0
  5  7  1  0  0  0  0
  5 10  1  0  0  0  0
  5 11  1  0  0  0  0
  6  7  1  0  0  0  0
  6  8  1  0  0  0  0
  6 13  1  6  0  0  0
  8  9  1  0  0  0  0
  9 10  1  0  0  0  0
 11 12  1  0  0  0  0
 12 14  1  0  0  0  0
 14 15  2  0  0  0  0
 15 16  1  0  0  0  0
 15 17  1  0  0  0  0
 16 18  2  0  0  0  0
 17 19  2  0  0  0  0
 18 20  1  0  0  0  0
 18 22  1  0  0  0  0
 19 21  1  0  0  0  0
 19 23  1  0  0  0  0
 20 24  2  0  0  0  0
 21 25  2  0  0  0  0
M  END
>  <DATABASE_ID>
DB00906

>  <DATABASE_NAME>
drugbank

>  <SMILES>
s1ccc(C)c1C(=CCCN1C[C@@H](CCC1)C(O)=O)c1sccc1C

>  <INCHI_IDENTIFIER>
InChI=1S/C20H25NO2S2/c1-14-7-11-24-18(14)17(19-15(2)8-12-25-19)6-4-10-21-9-3-5-16(13-21)20(22)23/h6-8,11-12,16H,3-5,9-10,13H2,1-2H3,(H,22,23)/t16-/m1/s1

>  <INCHI_KEY>
InChIKey=PBJUNZJWGZTSKL-MRXNPFEDSA-N

>  <JCHEM_ACCEPTOR_COUNT>
3

>  <JCHEM_AVERAGE_POLARIZABILITY>
41.696579

>  <JCHEM_BIOAVAILABILITY>
1

>  <JCHEM_DONOR_COUNT>
1

>  <JCHEM_EXACT_MASS>
375.13266

>  <JCHEM_FORMAL_CHARGE>
0

>  <JCHEM_FORMULA>
C20H25NO2S2

>  <JCHEM_GHOSE_FILTER>
1

>  <JCHEM_IUPAC>
(3R)-1-[4,4-bis(3-methylthiophen-2-yl)but-3-en-1-yl]piperidine-3-carboxylic acid

>  <ALOGPS_LOGP>
4.98

>  <JCHEM_LOGP>
2.6014485

>  <ALOGPS_LOGS>
-4.25

>  <JCHEM_MASS>
375.548

>  <JCHEM_MDDR_LIKE_RULE>
1

>  <JCHEM_NUMBER_OF_RINGS>
3

>  <JCHEM_PHYSIOLOGICAL_CHARGE>
0

>  <JCHEM_PKA_STRONGEST_ACIDIC>
4.1433096

>  <JCHEM_PKA_STRONGEST_BASIC>
9.2569399

>  <JCHEM_POLAR_SURFACE_AREA>
40.540001

>  <JCHEM_REFRACTIVITY>
115.3171

>  <JCHEM_ROTATABLE_BOND_COUNT>
6

>  <JCHEM_RULE_OF_FIVE>
1

>  <ALOGPS_SOLUBILITY>
2.11e-02 g/l

>  <JCHEM_TRADITIONAL_IUPAC>
tiagabine

>  <JCHEM_VEBER_RULE>
0

>  <DRUGBANK_ID>
DB00906

>  <DRUG_GROUPS>
approved

>  <GENERIC_NAME>
Tiagabine

>  <SYNONYMS>
Tiagabina; Tiagabinum

$$$$
Quinidine
 OpenBabel02121510022D

 26 29  0  0  1  0  0  0  0  0999 V2000
    6.8990    0.0160    0.0000 O   0  0  0  0  0  0  0  0  0  0  0  0
    9.0960    1.2340    0.0000 O   0  0  0  0  0  0  0  0  0  0  0  0
    5.2560   -1.6060    0.0000 N   0  0  3  0  0  0  0  0  0  0  0  0
    6.1840    2.9030    0.0000 N   0  0  0  0  0  0  0  0  0  0  0  0
    4.4590   -1.3920    0.0000 C   0  0  1  0  0  0  0  0  0  0  0  0
    5.4700    0.0160    0.0000 C   0  0  2  0  0  0  0  0  0  0  0  0
    4.6730    0.2290    0.0000 C   0  0  0  0  0  0  0  0  0  0  0  0
    3.0300   -2.2180    0.0000 C   0  0  2  0  0  0  0  0  0  0  0  0
    5.3520   -2.8400    0.0000 C   0  0  0  0  0  0  0  0  0  0  0  0
    3.4430   -2.9320    0.0000 C   0  0  0  0  0  0  0  0  0  0  0  0
    6.0670   -2.4270    0.0000 C   0  0  0  0  0  0  0  0  0  0  0  0
    6.1840    0.4280    0.0000 C   0  0  2  0  0  0  0  0  0  0  0  0
    2.2330   -2.0040    0.0000 C   0  0  0  0  0  0  0  0  0  0  0  0
    6.1840    1.2530    0.0000 C   0  0  0  0  0  0  0  0  0  0  0  0
    1.6500   -2.5870    0.0000 C   0  0  0  0  0  0  0  0  0  0  0  0
    6.8990    1.6660    0.0000 C   0  0  0  0  0  0  0  0  0  0  0  0
    5.4700    1.6660    0.0000 C   0  0  0  0  0  0  0  0  0  0  0  0
    6.8990    2.4910    0.0000 C   0  0  0  0  0  0  0  0  0  0  0  0
    7.6360    1.2250    0.0000 C   0  0  0  0  0  0  0  0  0  0  0  0
    5.4700    2.4910    0.0000 C   0  0  0  0  0  0  0  0  0  0  0  0
    7.6360    2.9320    0.0000 C   0  0  0  0  0  0  0  0  0  0  0  0
    8.3840    1.6490    0.0000 C   0  0  0  0  0  0  0  0  0  0  0  0
    8.3840    2.5080    0.0000 C   0  0  0  0  0  0  0  0  0  0  0  0
    9.8120    1.6430    0.0000 C   0  0  0  0  0  0  0  0  0  0  0  0
    3.8220   -1.2220    0.0000 H   0  0  0  0  0  0  0  0  0  0  0  0
    6.0180   -0.3510    0.0000 H   0  0  0  0  0  0  0  0  0  0  0  0
  2 22  1  0  0  0  0
  2 24  1  0  0  0  0
  3  6  1  0  0  0  0
  3 10  1  0  0  0  0
  3 11  1  0  0  0  0
  4 18  1  0  0  0  0
  4 20  2  0  0  0  0
  5  7  1  0  0  0  0
  5  8  1  0  0  0  0
  5  9  1  0  0  0  0
  5 25  1  1  0  0  0
  6  7  1  0  0  0  0
  6 12  1  0  0  0  0
  6 26  1  1  0  0  0
  8 10  1  0  0  0  0
  8 13  1  6  0  0  0
  9 11  1  0  0  0  0
 12  1  1  6  0  0  0
 12 14  1  0  0  0  0
 13 15  2  0  0  0  0
 14 16  1  0  0  0  0
 14 17  2  0  0  0  0
 16 18  1  0  0  0  0
 16 19  2  0  0  0  0
 17 20  1  0  0  0  0
 18 21  2  0  0  0  0
 19 22  1  0  0  0  0
 21 23  1  0  0  0  0
 22 23  2  0  0  0  0
M  END
>  <DATABASE_ID>
DB00908

>  <DATABASE_NAME>
drugbank

>  <SMILES>
O(C)c1cc2c(nccc2[C@H](O)[C@@H]2N3C[C@@H]([C@H](C2)CC3)C=C)cc1

>  <INCHI_IDENTIFIER>
InChI=1S/C20H24N2O2/c1-3-13-12-22-9-7-14(13)10-19(22)20(23)16-6-8-21-18-5-4-15(24-2)11-17(16)18/h3-6,8,11,13-14,19-20,23H,1,7,9-10,12H2,2H3/t13-,14-,19+,20-/m0/s1

>  <INCHI_KEY>
InChIKey=LOUPRKONTZGTKE-LHHVKLHASA-N

>  <JCHEM_ACCEPTOR_COUNT>
4

>  <JCHEM_AVERAGE_POLARIZABILITY>
35.820621

>  <JCHEM_BIOAVAILABILITY>
1

>  <JCHEM_DONOR_COUNT>
1

>  <JCHEM_EXACT_MASS>
324.18378

>  <JCHEM_FORMAL_CHARGE>
0

>  <JCHEM_FORMULA>
C20H24N2O2

>  <JCHEM_GHOSE_FILTER>
1

>  <JCHEM_IUPAC>
(S)-[(2R,4S,5R)-5-ethenyl-1-azabicyclo[2.2.2]octan-2-yl](6-methoxyquinolin-4-yl)methanol

>  <ALOGPS_LOGP>
2.8199999

>  <JCHEM_LOGP>
2.513464

>  <ALOGPS_LOGS>
-2.99

>  <JCHEM_MASS>
324.41681

>  <JCHEM_MDDR_LIKE_RULE>
0

>  <JCHEM_NUMBER_OF_RINGS>
4

>  <JCHEM_PHYSIOLOGICAL_CHARGE>
1

>  <JCHEM_PKA_STRONGEST_ACIDIC>
13.892048

>  <JCHEM_PKA_STRONGEST_BASIC>
9.0455475

>  <JCHEM_POLAR_SURFACE_AREA>
45.59

>  <JCHEM_REFRACTIVITY>
94.693604

>  <JCHEM_ROTATABLE_BOND_COUNT>
4

>  <JCHEM_RULE_OF_FIVE>
1

>  <ALOGPS_SOLUBILITY>
3.34e-01 g/l

>  <JCHEM_TRADITIONAL_IUPAC>
quinidine

>  <JCHEM_VEBER_RULE>
0

>  <DRUGBANK_ID>
DB00908

>  <DRUG_GROUPS>
approved

>  <GENERIC_NAME>
Quinidine

>  <SYNONYMS>
(+)-quinidine; Chinidin; CIN-QUIN; Conquinine; Pitayine; β-quinine

>  <BRANDS>
Cardioquin; Kinidin; Quin-Release; Quinaglute; Quinalan; Quinicardine; Quinidex

>  <SALTS>
Quinidine Sulfate

$$$$
Zonisamide
 OpenBabel02121510022D

 14 15  0  0  0  0  0  0  0  0999 V2000
    4.9230    0.8180    0.0000 S   0  0  0  0  0  0  0  0  0  0  0  0
    3.8600   -1.4640    0.0000 O   0  0  0  0  0  0  0  0  0  0  0  0
    4.7530    1.6250    0.0000 O   0  0  0  0  0  0  0  0  0  0  0  0
    5.0930    0.0110    0.0000 O   0  0  0  0  0  0  0  0  0  0  0  0
    4.3410   -0.8000    0.0000 N   0  0  0  0  0  0  0  0  0  0  0  0
    5.7300    0.9880    0.0000 N   0  0  0  0  0  0  0  0  0  0  0  0
    4.1160    0.6480    0.0000 C   0  0  0  0  0  0  0  0  0  0  0  0
    3.8600   -0.1360    0.0000 C   0  0  0  0  0  0  0  0  0  0  0  0
    3.0790   -0.3880    0.0000 C   0  0  0  0  0  0  0  0  0  0  0  0
    3.0790   -1.2130    0.0000 C   0  0  0  0  0  0  0  0  0  0  0  0
    2.3640    0.0250    0.0000 C   0  0  0  0  0  0  0  0  0  0  0  0
    2.3640   -1.6250    0.0000 C   0  0  0  0  0  0  0  0  0  0  0  0
    1.6500   -0.3880    0.0000 C   0  0  0  0  0  0  0  0  0  0  0  0
    1.6500   -1.2130    0.0000 C   0  0  0  0  0  0  0  0  0  0  0  0
  1  3  2  0  0  0  0
  1  4  2  0  0  0  0
  1  6  1  0  0  0  0
  1  7  1  0  0  0  0
  2  5  1  0  0  0  0
  2 10  1  0  0  0  0
  5  8  2  0  0  0  0
  7  8  1  0  0  0  0
  8  9  1  0  0  0  0
  9 10  2  0  0  0  0
  9 11  1  0  0  0  0
 10 12  1  0  0  0  0
 11 13  2  0  0  0  0
 12 14  2  0  0  0  0
 13 14  1  0  0  0  0
M  END
>  <DATABASE_ID>
DB00909

>  <DATABASE_NAME>
drugbank

>  <SMILES>
S(=O)(=O)(N)Cc1noc2c1cccc2

>  <INCHI_IDENTIFIER>
InChI=1S/C8H8N2O3S/c9-14(11,12)5-7-6-3-1-2-4-8(6)13-10-7/h1-4H,5H2,(H2,9,11,12)

>  <INCHI_KEY>
InChIKey=UBQNRHZMVUUOMG-UHFFFAOYSA-N

>  <JCHEM_ACCEPTOR_COUNT>
3

>  <JCHEM_AVERAGE_POLARIZABILITY>
19.479885

>  <JCHEM_BIOAVAILABILITY>
1

>  <JCHEM_DONOR_COUNT>
1

>  <JCHEM_EXACT_MASS>
212.02556

>  <JCHEM_FORMAL_CHARGE>
0

>  <JCHEM_FORMULA>
C8H8N2O3S

>  <JCHEM_GHOSE_FILTER>
1

>  <JCHEM_IUPAC>
1,2-benzoxazol-3-ylmethanesulfonamide

>  <ALOGPS_LOGP>
0.67000002

>  <JCHEM_LOGP>
0.11068642

>  <ALOGPS_LOGS>
-2.01

>  <JCHEM_MASS>
212.226

>  <JCHEM_MDDR_LIKE_RULE>
0

>  <JCHEM_NUMBER_OF_RINGS>
2

>  <JCHEM_PHYSIOLOGICAL_CHARGE>
0

>  <JCHEM_PKA_STRONGEST_ACIDIC>
9.8359404

>  <JCHEM_PKA_STRONGEST_BASIC>
-1.7614056

>  <JCHEM_POLAR_SURFACE_AREA>
86.190002

>  <JCHEM_REFRACTIVITY>
50.298401

>  <JCHEM_ROTATABLE_BOND_COUNT>
2

>  <JCHEM_RULE_OF_FIVE>
1

>  <ALOGPS_SOLUBILITY>
2.09e+00 g/l

>  <JCHEM_TRADITIONAL_IUPAC>
zonisamide

>  <JCHEM_VEBER_RULE>
0

>  <DRUGBANK_ID>
DB00909

>  <DRUG_GROUPS>
approved; investigational

>  <GENERIC_NAME>
Zonisamide

>  <SYNONYMS>
Zonisamida; Zonisamidum

$$$$
Repaglinide
 OpenBabel02121510022D

 33 35  0  0  1  0  0  0  0  0999 V2000
    5.9370   -0.0500    0.0000 O   0  0  0  0  0  0  0  0  0  0  0  0
    3.0790    2.4260    0.0000 O   0  0  0  0  0  0  0  0  0  0  0  0
    5.2220    3.6630    0.0000 O   0  0  0  0  0  0  0  0  0  0  0  0
    3.7940    3.6630    0.0000 O   0  0  0  0  0  0  0  0  0  0  0  0
    7.3660   -2.5250    0.0000 N   0  0  0  0  0  0  0  0  0  0  0  0
    5.2220   -1.2870    0.0000 N   0  0  0  0  0  0  0  0  0  0  0  0
    6.6520   -2.9370    0.0000 C   0  0  0  0  0  0  0  0  0  0  0  0
    8.0800   -2.9370    0.0000 C   0  0  0  0  0  0  0  0  0  0  0  0
    6.6520   -3.7620    0.0000 C   0  0  0  0  0  0  0  0  0  0  0  0
    8.0800   -3.7620    0.0000 C   0  0  0  0  0  0  0  0  0  0  0  0
    7.3660   -4.1750    0.0000 C   0  0  0  0  0  0  0  0  0  0  0  0
    5.9370   -1.7000    0.0000 C   0  0  2  0  0  0  0  0  0  0  0  0
    7.3660   -1.7000    0.0000 C   0  0  0  0  0  0  0  0  0  0  0  0
    6.6520   -1.2870    0.0000 C   0  0  0  0  0  0  0  0  0  0  0  0
    5.9370   -2.5250    0.0000 C   0  0  0  0  0  0  0  0  0  0  0  0
    5.2220   -2.9370    0.0000 C   0  0  0  0  0  0  0  0  0  0  0  0
    8.0800   -1.2870    0.0000 C   0  0  0  0  0  0  0  0  0  0  0  0
    6.6520   -0.4620    0.0000 C   0  0  0  0  0  0  0  0  0  0  0  0
    5.2220   -3.7620    0.0000 C   0  0  0  0  0  0  0  0  0  0  0  0
    4.5080   -2.5250    0.0000 C   0  0  0  0  0  0  0  0  0  0  0  0
    8.0800   -0.4620    0.0000 C   0  0  0  0  0  0  0  0  0  0  0  0
    7.3660   -0.0500    0.0000 C   0  0  0  0  0  0  0  0  0  0  0  0
    5.2220   -0.4620    0.0000 C   0  0  0  0  0  0  0  0  0  0  0  0
    4.5080   -0.0500    0.0000 C   0  0  0  0  0  0  0  0  0  0  0  0
    4.5080    0.7760    0.0000 C   0  0  0  0  0  0  0  0  0  0  0  0
    3.7940    1.1880    0.0000 C   0  0  0  0  0  0  0  0  0  0  0  0
    5.2220    1.1880    0.0000 C   0  0  0  0  0  0  0  0  0  0  0  0
    3.7940    2.0130    0.0000 C   0  0  0  0  0  0  0  0  0  0  0  0
    5.2220    2.0130    0.0000 C   0  0  0  0  0  0  0  0  0  0  0  0
    4.5080    2.4260    0.0000 C   0  0  0  0  0  0  0  0  0  0  0  0
    4.5080    3.2510    0.0000 C   0  0  0  0  0  0  0  0  0  0  0  0
    2.3640    2.0130    0.0000 C   0  0  0  0  0  0  0  0  0  0  0  0
    1.6500    2.4260    0.0000 C   0  0  0  0  0  0  0  0  0  0  0  0
  1 23  2  0  0  0  0
  2 28  1  0  0  0  0
  2 32  1  0  0  0  0
  3 31  1  0  0  0  0
  4 31  2  0  0  0  0
  5  7  1  0  0  0  0
  5  8  1  0  0  0  0
  5 13  1  0  0  0  0
  6 23  1  0  0  0  0
  7  9  1  0  0  0  0
  8 10  1  0  0  0  0
  9 11  1  0  0  0  0
 10 11  1  0  0  0  0
 12  6  1  6  0  0  0
 12 14  1  0  0  0  0
 12 15  1  0  0  0  0
 13 14  1  0  0  0  0
 13 17  2  0  0  0  0
 14 18  2  0  0  0  0
 15 16  1  0  0  0  0
 16 19  1  0  0  0  0
 16 20  1  0  0  0  0
 17 21  1  0  0  0  0
 18 22  1  0  0  0  0
 21 22  2  0  0  0  0
 23 24  1  0  0  0  0
 24 25  1  0  0  0  0
 25 26  2  0  0  0  0
 25 27  1  0  0  0  0
 26 28  1  0  0  0  0
 27 29  2  0  0  0  0
 28 30  2  0  0  0  0
 29 30  1  0  0  0  0
 30 31  1  0  0  0  0
 32 33  1  0  0  0  0
M  END
>  <DATABASE_ID>
DB00912

>  <DATABASE_NAME>
drugbank

>  <SMILES>
O(CC)c1cc(ccc1C(O)=O)CC(=O)N[C@@H](CC(C)C)c1ccccc1N1CCCCC1

>  <INCHI_IDENTIFIER>
InChI=1S/C27H36N2O4/c1-4-33-25-17-20(12-13-22(25)27(31)32)18-26(30)28-23(16-19(2)3)21-10-6-7-11-24(21)29-14-8-5-9-15-29/h6-7,10-13,17,19,23H,4-5,8-9,14-16,18H2,1-3H3,(H,28,30)(H,31,32)/t23-/m0/s1

>  <INCHI_KEY>
InChIKey=FAEKWTJYAYMJKF-QHCPKHFHSA-N

>  <JCHEM_ACCEPTOR_COUNT>
5

>  <JCHEM_AVERAGE_POLARIZABILITY>
51.486

>  <JCHEM_BIOAVAILABILITY>
1

>  <JCHEM_DONOR_COUNT>
2

>  <JCHEM_EXACT_MASS>
452.26752

>  <JCHEM_FORMAL_CHARGE>
0

>  <JCHEM_FORMULA>
C27H36N2O4

>  <JCHEM_GHOSE_FILTER>
0

>  <JCHEM_IUPAC>
2-ethoxy-4-({[(1S)-3-methyl-1-[2-(piperidin-1-yl)phenyl]butyl]carbamoyl}methyl)benzoic acid

>  <ALOGPS_LOGP>
5.0500002

>  <JCHEM_LOGP>
3.9468045

>  <ALOGPS_LOGS>
-5.1900001

>  <JCHEM_MASS>
452.58569

>  <JCHEM_MDDR_LIKE_RULE>
1

>  <JCHEM_NUMBER_OF_RINGS>
3

>  <JCHEM_PHYSIOLOGICAL_CHARGE>
-1

>  <JCHEM_PKA>
15.519067

>  <JCHEM_PKA_STRONGEST_ACIDIC>
3.6754997

>  <JCHEM_PKA_STRONGEST_BASIC>
4.8184757

>  <JCHEM_POLAR_SURFACE_AREA>
78.870003

>  <JCHEM_REFRACTIVITY>
131.82809

>  <JCHEM_ROTATABLE_BOND_COUNT>
10

>  <JCHEM_RULE_OF_FIVE>
1

>  <ALOGPS_SOLUBILITY>
2.94e-03 g/l

>  <JCHEM_TRADITIONAL_IUPAC>
repaglinide

>  <JCHEM_VEBER_RULE>
0

>  <DRUGBANK_ID>
DB00912

>  <DRUG_GROUPS>
approved; investigational

>  <GENERIC_NAME>
Repaglinide

>  <SYNONYMS>
Repaglinida; Repaglinidum

>  <BRANDS>
GlucoNorm; Prandin

$$$$
Amantadine
 OpenBabel02121510022D

 11 13  0  0  0  0  0  0  0  0999 V2000
    3.1360    1.3020    0.0000 N   0  0  0  0  0  0  0  0  0  0  0  0
    3.1360    0.4480    0.0000 C   0  0  3  0  0  0  0  0  0  0  0  0
    3.8500   -0.7880    0.0000 C   0  0  3  0  0  0  0  0  0  0  0  0
    2.5460   -1.1600    0.0000 C   0  0  3  0  0  0  0  0  0  0  0  0
    2.4220   -0.7880    0.0000 C   0  0  3  0  0  0  0  0  0  0  0  0
    3.8500    0.0360    0.0000 C   0  0  0  0  0  0  0  0  0  0  0  0
    2.5460   -0.2670    0.0000 C   0  0  0  0  0  0  0  0  0  0  0  0
    2.4220    0.0360    0.0000 C   0  0  0  0  0  0  0  0  0  0  0  0
    3.3200   -1.5670    0.0000 C   0  0  0  0  0  0  0  0  0  0  0  0
    3.1360   -1.0470    0.0000 C   0  0  0  0  0  0  0  0  0  0  0  0
    1.7080   -1.2010    0.0000 C   0  0  0  0  0  0  0  0  0  0  0  0
  1  2  1  0  0  0  0
  2  6  1  0  0  0  0
  2  7  1  0  0  0  0
  2  8  1  0  0  0  0
  3  6  1  0  0  0  0
  3  9  1  0  0  0  0
  3 10  1  0  0  0  0
  4  7  1  0  0  0  0
  4  9  1  0  0  0  0
  4 11  1  0  0  0  0
  5  8  1  0  0  0  0
  5 10  1  0  0  0  0
  5 11  1  0  0  0  0
M  END
>  <DATABASE_ID>
DB00915

>  <DATABASE_NAME>
drugbank

>  <SMILES>
NC12CC3CC(C1)CC(C2)C3

>  <INCHI_IDENTIFIER>
InChI=1S/C10H17N/c11-10-4-7-1-8(5-10)3-9(2-7)6-10/h7-9H,1-6,11H2

>  <INCHI_KEY>
InChIKey=DKNWSYNQZKUICI-UHFFFAOYSA-N

>  <JCHEM_ACCEPTOR_COUNT>
1

>  <JCHEM_AVERAGE_POLARIZABILITY>
17.9175

>  <JCHEM_BIOAVAILABILITY>
1

>  <JCHEM_DONOR_COUNT>
1

>  <JCHEM_EXACT_MASS>
151.13609

>  <JCHEM_FORMAL_CHARGE>
0

>  <JCHEM_FORMULA>
C10H17N

>  <JCHEM_GHOSE_FILTER>
0

>  <JCHEM_IUPAC>
adamantan-1-amine

>  <ALOGPS_LOGP>
2.53

>  <JCHEM_LOGP>
1.4659475

>  <ALOGPS_LOGS>
-3.25

>  <JCHEM_MASS>
151.2487

>  <JCHEM_MDDR_LIKE_RULE>
0

>  <JCHEM_NUMBER_OF_RINGS>
3

>  <JCHEM_PHYSIOLOGICAL_CHARGE>
1

>  <JCHEM_PKA_STRONGEST_BASIC>
10.711878

>  <JCHEM_POLAR_SURFACE_AREA>
26.02

>  <JCHEM_REFRACTIVITY>
45.535599

>  <JCHEM_ROTATABLE_BOND_COUNT>
0

>  <JCHEM_RULE_OF_FIVE>
1

>  <ALOGPS_SOLUBILITY>
8.46e-02 g/l

>  <JCHEM_TRADITIONAL_IUPAC>
amantadine

>  <JCHEM_VEBER_RULE>
1

>  <DRUGBANK_ID>
DB00915

>  <DRUG_GROUPS>
approved

>  <GENERIC_NAME>
Amantadine

>  <SYNONYMS>
1-adamantanamine; 1-adamantylamine; 1-aminoadamantane; Amantidine; Aminoadamantane

>  <BRANDS>
Endantadine; PK-Merz; Symmetrel

>  <SALTS>
Amantadine hydrochloride; Amantadine sulfate

$$$$
Metronidazole
 OpenBabel02121510022D

 12 12  0  0  0  0  0  0  0  0999 V2000
    2.3880   -1.5380    0.0000 O   0  0  0  0  0  0  0  0  0  0  0  0
    5.1670    1.3060    0.0000 O   0  5  0  0  0  0  0  0  0  0  0  0
    4.7260   -0.0530    0.0000 O   0  0  0  0  0  0  0  0  0  0  0  0
    3.1020    0.5240    0.0000 N   0  0  0  0  0  0  0  0  0  0  0  0
    2.6900    1.7940    0.0000 N   0  0  0  0  0  0  0  0  0  0  0  0
    4.5540    0.7540    0.0000 N   0  3  0  0  0  0  0  0  0  0  0  0
    3.1020   -0.3010    0.0000 C   0  0  0  0  0  0  0  0  0  0  0  0
    2.4350    1.0090    0.0000 C   0  0  0  0  0  0  0  0  0  0  0  0
    3.7700    1.0090    0.0000 C   0  0  0  0  0  0  0  0  0  0  0  0
    2.3880   -0.7130    0.0000 C   0  0  0  0  0  0  0  0  0  0  0  0
    3.5150    1.7940    0.0000 C   0  0  0  0  0  0  0  0  0  0  0  0
    1.6500    0.7540    0.0000 C   0  0  0  0  0  0  0  0  0  0  0  0
  1 10  1  0  0  0  0
  2  6  1  0  0  0  0
  3  6  2  0  0  0  0
  4  7  1  0  0  0  0
  4  8  1  0  0  0  0
  4  9  1  0  0  0  0
  5  8  2  0  0  0  0
  5 11  1  0  0  0  0
  6  9  1  0  0  0  0
  7 10  1  0  0  0  0
  8 12  1  0  0  0  0
  9 11  2  0  0  0  0
M  CHG  2   2  -1   6   1
M  END
>  <DATABASE_ID>
DB00916

>  <DATABASE_NAME>
drugbank

>  <SMILES>
OCCn1c(ncc1[N+](=O)[O-])C

>  <INCHI_IDENTIFIER>
InChI=1S/C6H9N3O3/c1-5-7-4-6(9(11)12)8(5)2-3-10/h4,10H,2-3H2,1H3

>  <INCHI_KEY>
InChIKey=VAOCPAMSLUNLGC-UHFFFAOYSA-N

>  <JCHEM_ACCEPTOR_COUNT>
4

>  <JCHEM_AVERAGE_POLARIZABILITY>
15.815704

>  <JCHEM_BIOAVAILABILITY>
1

>  <JCHEM_DONOR_COUNT>
1

>  <JCHEM_EXACT_MASS>
171.06439

>  <JCHEM_FORMAL_CHARGE>
0

>  <JCHEM_FORMULA>
C6H9N3O3

>  <JCHEM_GHOSE_FILTER>
0

>  <JCHEM_IUPAC>
2-(2-methyl-5-nitro-1H-imidazol-1-yl)ethan-1-ol

>  <ALOGPS_LOGP>
-0.15000001

>  <JCHEM_LOGP>
-0.45931023

>  <ALOGPS_LOGS>
-1.46

>  <JCHEM_MASS>
171.15401

>  <JCHEM_MDDR_LIKE_RULE>
0

>  <JCHEM_NUMBER_OF_RINGS>
1

>  <JCHEM_PHYSIOLOGICAL_CHARGE>
0

>  <JCHEM_PKA_STRONGEST_ACIDIC>
15.436296

>  <JCHEM_PKA_STRONGEST_BASIC>
3.0871482

>  <JCHEM_POLAR_SURFACE_AREA>
83.870003

>  <JCHEM_REFRACTIVITY>
41.220501

>  <JCHEM_ROTATABLE_BOND_COUNT>
3

>  <JCHEM_RULE_OF_FIVE>
1

>  <ALOGPS_SOLUBILITY>
5.92e+00 g/l

>  <JCHEM_TRADITIONAL_IUPAC>
metronidazole

>  <JCHEM_VEBER_RULE>
0

>  <DRUGBANK_ID>
DB00916

>  <DRUG_GROUPS>
approved

>  <GENERIC_NAME>
Metronidazole

>  <SYNONYMS>
1-(2-hydroxy-1-ethyl)-2-methyl-5-nitroimidazole; 1-(2-hydroxyethyl)-2-methyl-5-nitroimidazole; 1-(β-ethylol)-2-methyl-5-nitro-3-azapyrrole; 1-(β-hydroxyethyl)-2-methyl-5-nitroimidazole; 1-(β-oxyethyl)-2-methyl-5-nitroimidazole; 2-methyl-1-(2-hydroxyethyl)-5-nitroimidazole; 2-methyl-3-(2-hydroxyethyl)-4-nitroimidazole; 2-methyl-5-nitroimidazole-1-ethanol

>  <BRANDS>
Anabact; Arilin; Clont; Deflamon; Efloran; Elyzol; Entizol; Flagyl; Fossyol; Klion; Klont; MetroCream; Metrogel; Metrogel-Vaginal; MetroLotion; Metrolyl; Metrotop; Nalox; Nidagel; Noritate; Novonidazol; Orvagil; Protostat; Rosadan; Takimetol; Trichazole; Trichex; Trichopol; Tricowas B; Trikacide; Trikozol; Vagilen; Vagimid; Vandazole; Vertisal; Zadstat

>  <SALTS>
Metronidazole hydrochloride

$$$$
Dinoprostone
 OpenBabel02121510022D

 25 25  0  0  1  0  0  0  0  0999 V2000
    8.5220   -1.7360    0.0000 O   0  0  0  0  0  0  0  0  0  0  0  0
    6.1730   -3.4440    0.0000 O   0  0  0  0  0  0  0  0  0  0  0  0
    7.0700    0.9680    0.0000 O   0  0  0  0  0  0  0  0  0  0  0  0
    2.1360    0.8970    0.0000 O   0  0  0  0  0  0  0  0  0  0  0  0
    1.6950   -0.4620    0.0000 O   0  0  0  0  0  0  0  0  0  0  0  0
    7.0700   -1.5060    0.0000 C   0  0  2  0  0  0  0  0  0  0  0  0
    6.4030   -1.9920    0.0000 C   0  0  2  0  0  0  0  0  0  0  0  0
    7.7380   -1.9920    0.0000 C   0  0  1  0  0  0  0  0  0  0  0  0
    7.4830   -2.7760    0.0000 C   0  0  0  0  0  0  0  0  0  0  0  0
    6.6580   -2.7760    0.0000 C   0  0  0  0  0  0  0  0  0  0  0  0
    5.6180   -1.7360    0.0000 C   0  0  0  0  0  0  0  0  0  0  0  0
    7.0700   -0.6820    0.0000 C   0  0  0  0  0  0  0  0  0  0  0  0
    7.7850   -0.2690    0.0000 C   0  0  0  0  0  0  0  0  0  0  0  0
    5.0050   -2.2890    0.0000 C   0  0  0  0  0  0  0  0  0  0  0  0
    7.7850    0.5560    0.0000 C   0  0  2  0  0  0  0  0  0  0  0  0
    8.4990    0.9680    0.0000 C   0  0  0  0  0  0  0  0  0  0  0  0
    8.4990    1.7940    0.0000 C   0  0  0  0  0  0  0  0  0  0  0  0
    4.2200   -2.0340    0.0000 C   0  0  0  0  0  0  0  0  0  0  0  0
    9.2140    2.2060    0.0000 C   0  0  0  0  0  0  0  0  0  0  0  0
    4.0490   -1.2270    0.0000 C   0  0  0  0  0  0  0  0  0  0  0  0
    9.2140    3.0310    0.0000 C   0  0  0  0  0  0  0  0  0  0  0  0
    3.2640   -0.9720    0.0000 C   0  0  0  0  0  0  0  0  0  0  0  0
    3.0930   -0.1650    0.0000 C   0  0  0  0  0  0  0  0  0  0  0  0
    9.9280    3.4440    0.0000 C   0  0  0  0  0  0  0  0  0  0  0  0
    2.3080    0.0900    0.0000 C   0  0  0  0  0  0  0  0  0  0  0  0
  2 10  2  0  0  0  0
  4 25  1  0  0  0  0
  5 25  2  0  0  0  0
  6  7  1  0  0  0  0
  6  8  1  0  0  0  0
  6 12  1  1  0  0  0
  7 10  1  0  0  0  0
  7 11  1  6  0  0  0
  8  1  1  6  0  0  0
  8  9  1  0  0  0  0
  9 10  1  0  0  0  0
 11 14  1  0  0  0  0
 12 13  2  0  0  0  0
 14 18  2  0  0  0  0
 15 13  1  1  0  0  0
 15  3  1  0  0  0  0
 15 16  1  0  0  0  0
 16 17  1  0  0  0  0
 17 19  1  0  0  0  0
 18 20  1  0  0  0  0
 19 21  1  0  0  0  0
 20 22  1  0  0  0  0
 21 24  1  0  0  0  0
 22 23  1  0  0  0  0
 23 25  1  0  0  0  0
M  END
>  <DATABASE_ID>
DB00917

>  <DATABASE_NAME>
drugbank

>  <SMILES>
O=C1C[C@@H](O)[C@H](\C=C\[C@@H](O)CCCCC)[C@H]1C\C=C/CCCC(O)=O

>  <INCHI_IDENTIFIER>
InChI=1S/C20H32O5/c1-2-3-6-9-15(21)12-13-17-16(18(22)14-19(17)23)10-7-4-5-8-11-20(24)25/h4,7,12-13,15-17,19,21,23H,2-3,5-6,8-11,14H2,1H3,(H,24,25)/b7-4-,13-12+/t15-,16+,17+,19+/m0/s1

>  <INCHI_KEY>
InChIKey=XEYBRNLFEZDVAW-ARSRFYASSA-N

>  <JCHEM_ACCEPTOR_COUNT>
5

>  <JCHEM_AVERAGE_POLARIZABILITY>
40.995102

>  <JCHEM_BIOAVAILABILITY>
1

>  <JCHEM_DONOR_COUNT>
3

>  <JCHEM_EXACT_MASS>
352.22498

>  <JCHEM_FORMAL_CHARGE>
0

>  <JCHEM_FORMULA>
C20H32O5

>  <JCHEM_GHOSE_FILTER>
1

>  <JCHEM_IUPAC>
(5Z)-7-[(1R,2R,3R)-3-hydroxy-2-[(1E,3S)-3-hydroxyoct-1-en-1-yl]-5-oxocyclopentyl]hept-5-enoic acid

>  <ALOGPS_LOGP>
3.3099999

>  <JCHEM_LOGP>
3.22527

>  <ALOGPS_LOGS>
-3.9000001

>  <JCHEM_MASS>
352.46509

>  <JCHEM_MDDR_LIKE_RULE>
0

>  <JCHEM_NUMBER_OF_RINGS>
1

>  <JCHEM_PHYSIOLOGICAL_CHARGE>
-1

>  <JCHEM_PKA>
14.678908

>  <JCHEM_PKA_STRONGEST_ACIDIC>
4.3033595

>  <JCHEM_PKA_STRONGEST_BASIC>
-1.6263176

>  <JCHEM_POLAR_SURFACE_AREA>
94.830002

>  <JCHEM_REFRACTIVITY>
99.435097

>  <JCHEM_ROTATABLE_BOND_COUNT>
12

>  <JCHEM_RULE_OF_FIVE>
1

>  <ALOGPS_SOLUBILITY>
4.40e-02 g/l

>  <JCHEM_TRADITIONAL_IUPAC>
dinoprostone

>  <JCHEM_VEBER_RULE>
0

>  <DRUGBANK_ID>
DB00917

>  <DRUG_GROUPS>
approved

>  <GENERIC_NAME>
Dinoprostone

>  <SYNONYMS>
PGE2

>  <BRANDS>
Cervidil; Prepidil; Propess; Prostarmon E; PROSTIN; Prostin E2

$$$$
Almotriptan
 OpenBabel02121510022D

 23 25  0  0  0  0  0  0  0  0999 V2000
    3.6700   -0.5210    0.0000 S   0  0  0  0  0  0  0  0  0  0  0  0
    4.0830   -1.2350    0.0000 O   0  0  0  0  0  0  0  0  0  0  0  0
    3.2580    0.1940    0.0000 O   0  0  0  0  0  0  0  0  0  0  0  0
    2.9560   -0.9330    0.0000 N   0  0  0  0  0  0  0  0  0  0  0  0
    7.3090   -1.5970    0.0000 N   0  0  0  0  0  0  0  0  0  0  0  0
    8.6290    1.4690    0.0000 N   0  0  0  0  0  0  0  0  0  0  0  0
    2.8700   -1.7540    0.0000 C   0  0  0  0  0  0  0  0  0  0  0  0
    2.2020   -0.5980    0.0000 C   0  0  0  0  0  0  0  0  0  0  0  0
    2.0620   -1.9250    0.0000 C   0  0  0  0  0  0  0  0  0  0  0  0
    1.6500   -1.2110    0.0000 C   0  0  0  0  0  0  0  0  0  0  0  0
    4.3850   -0.1080    0.0000 C   0  0  0  0  0  0  0  0  0  0  0  0
    5.0990   -0.5210    0.0000 C   0  0  0  0  0  0  0  0  0  0  0  0
    6.5280   -0.5210    0.0000 C   0  0  0  0  0  0  0  0  0  0  0  0
    5.8140   -0.1080    0.0000 C   0  0  0  0  0  0  0  0  0  0  0  0
    7.3090   -0.2690    0.0000 C   0  0  0  0  0  0  0  0  0  0  0  0
    6.5280   -1.3460    0.0000 C   0  0  0  0  0  0  0  0  0  0  0  0
    5.0990   -1.3460    0.0000 C   0  0  0  0  0  0  0  0  0  0  0  0
    7.5650    0.5150    0.0000 C   0  0  0  0  0  0  0  0  0  0  0  0
    5.8140   -1.7580    0.0000 C   0  0  0  0  0  0  0  0  0  0  0  0
    7.7900   -0.9330    0.0000 C   0  0  0  0  0  0  0  0  0  0  0  0
    8.3720    0.6850    0.0000 C   0  0  0  0  0  0  0  0  0  0  0  0
    8.0780    2.0830    0.0000 C   0  0  0  0  0  0  0  0  0  0  0  0
    9.4360    1.6390    0.0000 C   0  0  0  0  0  0  0  0  0  0  0  0
  1  2  2  0  0  0  0
  1  3  2  0  0  0  0
  1  4  1  0  0  0  0
  1 11  1  0  0  0  0
  4  7  1  0  0  0  0
  4  8  1  0  0  0  0
  5 16  1  0  0  0  0
  5 20  1  0  0  0  0
  6 21  1  0  0  0  0
  6 22  1  0  0  0  0
  6 23  1  0  0  0  0
  7  9  1  0  0  0  0
  8 10  1  0  0  0  0
  9 10  1  0  0  0  0
 11 12  1  0  0  0  0
 12 14  2  0  0  0  0
 12 17  1  0  0  0  0
 13 14  1  0  0  0  0
 13 15  1  0  0  0  0
 13 16  2  0  0  0  0
 15 18  1  0  0  0  0
 15 20  2  0  0  0  0
 16 19  1  0  0  0  0
 17 19  2  0  0  0  0
 18 21  1  0  0  0  0
M  END
>  <DATABASE_ID>
DB00918

>  <DATABASE_NAME>
drugbank

>  <SMILES>
S(=O)(=O)(N1CCCC1)Cc1cc2c([nH]cc2CCN(C)C)cc1

>  <INCHI_IDENTIFIER>
InChI=1S/C17H25N3O2S/c1-19(2)10-7-15-12-18-17-6-5-14(11-16(15)17)13-23(21,22)20-8-3-4-9-20/h5-6,11-12,18H,3-4,7-10,13H2,1-2H3

>  <INCHI_KEY>
InChIKey=WKEMJKQOLOHJLZ-UHFFFAOYSA-N

>  <JCHEM_ACCEPTOR_COUNT>
3

>  <JCHEM_AVERAGE_POLARIZABILITY>
37.005852

>  <JCHEM_BIOAVAILABILITY>
1

>  <JCHEM_DONOR_COUNT>
1

>  <JCHEM_EXACT_MASS>
335.16675

>  <JCHEM_FORMAL_CHARGE>
0

>  <JCHEM_FORMULA>
C17H25N3O2S

>  <JCHEM_GHOSE_FILTER>
1

>  <JCHEM_IUPAC>
dimethyl(2-{5-[(pyrrolidine-1-sulfonyl)methyl]-1H-indol-3-yl}ethyl)amine

>  <ALOGPS_LOGP>
2.04

>  <JCHEM_LOGP>
1.5233824

>  <ALOGPS_LOGS>
-3.4400001

>  <JCHEM_MASS>
335.46399

>  <JCHEM_MDDR_LIKE_RULE>
0

>  <JCHEM_NUMBER_OF_RINGS>
3

>  <JCHEM_PHYSIOLOGICAL_CHARGE>
1

>  <JCHEM_PKA_STRONGEST_ACIDIC>
17.136013

>  <JCHEM_PKA_STRONGEST_BASIC>
9.5457716

>  <JCHEM_POLAR_SURFACE_AREA>
56.41

>  <JCHEM_REFRACTIVITY>
94.521896

>  <JCHEM_ROTATABLE_BOND_COUNT>
5

>  <JCHEM_RULE_OF_FIVE>
1

>  <ALOGPS_SOLUBILITY>
1.21e-01 g/l

>  <JCHEM_TRADITIONAL_IUPAC>
almotriptan

>  <JCHEM_VEBER_RULE>
0

>  <DRUGBANK_ID>
DB00918

>  <DRUG_GROUPS>
approved; investigational

>  <GENERIC_NAME>
Almotriptan

$$$$
Ketotifen
 OpenBabel02121510022D

 22 25  0  0  0  0  0  0  0  0999 V2000
    1.9720    1.6080    0.0000 S   0  0  0  0  0  0  0  0  0  0  0  0
    2.9450    2.9250    0.0000 O   0  0  0  0  0  0  0  0  0  0  0  0
    3.7160   -2.1000    0.0000 N   0  0  0  0  0  0  0  0  0  0  0  0
    3.7160   -0.4500    0.0000 C   0  0  0  0  0  0  0  0  0  0  0  0
    4.4300   -0.8630    0.0000 C   0  0  0  0  0  0  0  0  0  0  0  0
    3.0010   -0.8630    0.0000 C   0  0  0  0  0  0  0  0  0  0  0  0
    4.4300   -1.6880    0.0000 C   0  0  0  0  0  0  0  0  0  0  0  0
    3.0010   -1.6880    0.0000 C   0  0  0  0  0  0  0  0  0  0  0  0
    3.7160    0.3750    0.0000 C   0  0  0  0  0  0  0  0  0  0  0  0
    4.4590    0.7330    0.0000 C   0  0  0  0  0  0  0  0  0  0  0  0
    2.9720    0.7330    0.0000 C   0  0  0  0  0  0  0  0  0  0  0  0
    4.6420    1.5370    0.0000 C   0  0  0  0  0  0  0  0  0  0  0  0
    3.7160   -2.9250    0.0000 C   0  0  0  0  0  0  0  0  0  0  0  0
    2.7890    1.5370    0.0000 C   0  0  0  0  0  0  0  0  0  0  0  0
    4.1280    2.1820    0.0000 C   0  0  0  0  0  0  0  0  0  0  0  0
    3.3030    2.1820    0.0000 C   0  0  0  0  0  0  0  0  0  0  0  0
    5.0800    0.1380    0.0000 C   0  0  0  0  0  0  0  0  0  0  0  0
    2.2670    0.3140    0.0000 C   0  0  0  0  0  0  0  0  0  0  0  0
    5.4600    1.8030    0.0000 C   0  0  0  0  0  0  0  0  0  0  0  0
    1.6500    0.8540    0.0000 C   0  0  0  0  0  0  0  0  0  0  0  0
    5.9030    0.3850    0.0000 C   0  0  0  0  0  0  0  0  0  0  0  0
    6.0940    1.2230    0.0000 C   0  0  0  0  0  0  0  0  0  0  0  0
  1 14  1  0  0  0  0
  1 20  1  0  0  0  0
  2 16  2  0  0  0  0
  3  7  1  0  0  0  0
  3  8  1  0  0  0  0
  3 13  1  0  0  0  0
  4  5  1  0  0  0  0
  4  6  1  0  0  0  0
  4  9  2  0  0  0  0
  5  7  1  0  0  0  0
  6  8  1  0  0  0  0
  9 10  1  0  0  0  0
  9 11  1  0  0  0  0
 10 12  1  0  0  0  0
 10 17  2  0  0  0  0
 11 14  2  0  0  0  0
 11 18  1  0  0  0  0
 12 15  1  0  0  0  0
 12 19  2  0  0  0  0
 14 16  1  0  0  0  0
 15 16  1  0  0  0  0
 17 21  1  0  0  0  0
 18 20  2  0  0  0  0
 19 22  1  0  0  0  0
 21 22  2  0  0  0  0
M  END
>  <DATABASE_ID>
DB00920

>  <DATABASE_NAME>
drugbank

>  <SMILES>
s1c2c(cc1)C(c1c(CC2=O)cccc1)=C1CCN(CC1)C

>  <INCHI_IDENTIFIER>
InChI=1S/C19H19NOS/c1-20-9-6-13(7-10-20)18-15-5-3-2-4-14(15)12-17(21)19-16(18)8-11-22-19/h2-5,8,11H,6-7,9-10,12H2,1H3

>  <INCHI_KEY>
InChIKey=ZCVMWBYGMWKGHF-UHFFFAOYSA-N

>  <JCHEM_ACCEPTOR_COUNT>
2

>  <JCHEM_AVERAGE_POLARIZABILITY>
34.614517

>  <JCHEM_BIOAVAILABILITY>
1

>  <JCHEM_DONOR_COUNT>
0

>  <JCHEM_EXACT_MASS>
309.11874

>  <JCHEM_FORMAL_CHARGE>
0

>  <JCHEM_FORMULA>
C19H19NOS

>  <JCHEM_GHOSE_FILTER>
1

>  <JCHEM_IUPAC>
2-(1-methylpiperidin-4-ylidene)-6-thiatricyclo[8.4.0.0^{3,7}]tetradeca-1(10),3(7),4,11,13-pentaen-8-one

>  <ALOGPS_LOGP>
3.49

>  <JCHEM_LOGP>
3.3478694

>  <ALOGPS_LOGS>
-4.5900002

>  <JCHEM_MASS>
309.42499

>  <JCHEM_MDDR_LIKE_RULE>
0

>  <JCHEM_NUMBER_OF_RINGS>
4

>  <JCHEM_PHYSIOLOGICAL_CHARGE>
1

>  <JCHEM_PKA_STRONGEST_ACIDIC>
12.299357

>  <JCHEM_PKA_STRONGEST_BASIC>
7.1459188

>  <JCHEM_POLAR_SURFACE_AREA>
20.309999

>  <JCHEM_REFRACTIVITY>
101.734

>  <JCHEM_ROTATABLE_BOND_COUNT>
0

>  <JCHEM_RULE_OF_FIVE>
1

>  <ALOGPS_SOLUBILITY>
7.87e-03 g/l

>  <JCHEM_TRADITIONAL_IUPAC>
ketotifen

>  <JCHEM_VEBER_RULE>
1

>  <DRUGBANK_ID>
DB00920

>  <DRUG_GROUPS>
approved

>  <GENERIC_NAME>
Ketotifen

>  <SYNONYMS>
Ketotifene; Ketotifeno; Ketotifenum

>  <BRANDS>
Totifen; Zaditen; Zaditor; Zasten

$$$$
Cyclobenzaprine
 OpenBabel02121510022D

 21 23  0  0  0  0  0  0  0  0999 V2000
    2.5990   -1.7280    0.0000 N   0  0  0  0  0  0  0  0  0  0  0  0
    4.0280    0.7460    0.0000 C   0  0  0  0  0  0  0  0  0  0  0  0
    4.7710    1.1040    0.0000 C   0  0  0  0  0  0  0  0  0  0  0  0
    3.2850    1.1040    0.0000 C   0  0  0  0  0  0  0  0  0  0  0  0
    3.3140   -0.4910    0.0000 C   0  0  0  0  0  0  0  0  0  0  0  0
    4.0280   -0.0790    0.0000 C   0  0  0  0  0  0  0  0  0  0  0  0
    3.3140   -1.3160    0.0000 C   0  0  0  0  0  0  0  0  0  0  0  0
    4.9550    1.9080    0.0000 C   0  0  0  0  0  0  0  0  0  0  0  0
    3.1010    1.9080    0.0000 C   0  0  0  0  0  0  0  0  0  0  0  0
    4.4410    2.5530    0.0000 C   0  0  0  0  0  0  0  0  0  0  0  0
    3.6160    2.5530    0.0000 C   0  0  0  0  0  0  0  0  0  0  0  0
    5.3920    0.5100    0.0000 C   0  0  0  0  0  0  0  0  0  0  0  0
    2.6640    0.5100    0.0000 C   0  0  0  0  0  0  0  0  0  0  0  0
    5.7720    2.1740    0.0000 C   0  0  0  0  0  0  0  0  0  0  0  0
    2.2840    2.1740    0.0000 C   0  0  0  0  0  0  0  0  0  0  0  0
    6.2150    0.7570    0.0000 C   0  0  0  0  0  0  0  0  0  0  0  0
    1.8410    0.7570    0.0000 C   0  0  0  0  0  0  0  0  0  0  0  0
    6.4060    1.5950    0.0000 C   0  0  0  0  0  0  0  0  0  0  0  0
    1.6500    1.5950    0.0000 C   0  0  0  0  0  0  0  0  0  0  0  0
    2.5990   -2.5530    0.0000 C   0  0  0  0  0  0  0  0  0  0  0  0
    1.8850   -1.3160    0.0000 C   0  0  0  0  0  0  0  0  0  0  0  0
  1  7  1  0  0  0  0
  1 20  1  0  0  0  0
  1 21  1  0  0  0  0
  2  3  1  0  0  0  0
  2  4  1  0  0  0  0
  2  6  2  0  0  0  0
  3  8  1  0  0  0  0
  3 12  2  0  0  0  0
  4  9  1  0  0  0  0
  4 13  2  0  0  0  0
  5  6  1  0  0  0  0
  5  7  1  0  0  0  0
  8 10  1  0  0  0  0
  8 14  2  0  0  0  0
  9 11  1  0  0  0  0
  9 15  2  0  0  0  0
 10 11  2  0  0  0  0
 12 16  1  0  0  0  0
 13 17  1  0  0  0  0
 14 18  1  0  0  0  0
 15 19  1  0  0  0  0
 16 18  2  0  0  0  0
 17 19  2  0  0  0  0
M  END
>  <DATABASE_ID>
DB00924

>  <DATABASE_NAME>
drugbank

>  <SMILES>
N(CCC=C1c2c(C=Cc3c1cccc3)cccc2)(C)C

>  <INCHI_IDENTIFIER>
InChI=1S/C20H21N/c1-21(2)15-7-12-20-18-10-5-3-8-16(18)13-14-17-9-4-6-11-19(17)20/h3-6,8-14H,7,15H2,1-2H3

>  <INCHI_KEY>
InChIKey=JURKNVYFZMSNLP-UHFFFAOYSA-N

>  <JCHEM_ACCEPTOR_COUNT>
1

>  <JCHEM_AVERAGE_POLARIZABILITY>
32.94643

>  <JCHEM_BIOAVAILABILITY>
1

>  <JCHEM_DONOR_COUNT>
0

>  <JCHEM_EXACT_MASS>
275.16739

>  <JCHEM_FORMAL_CHARGE>
0

>  <JCHEM_FORMULA>
C20H21N

>  <JCHEM_GHOSE_FILTER>
1

>  <JCHEM_IUPAC>
dimethyl({3-[(2E)-tricyclo[9.4.0.0^{3,8}]pentadeca-1(11),3(8),4,6,9,12,14-heptaen-2-ylidene]propyl})amine

>  <ALOGPS_LOGP>
4.73

>  <JCHEM_LOGP>
4.6130133

>  <ALOGPS_LOGS>
-4.5999999

>  <JCHEM_MASS>
275.38739

>  <JCHEM_MDDR_LIKE_RULE>
0

>  <JCHEM_NUMBER_OF_RINGS>
3

>  <JCHEM_PHYSIOLOGICAL_CHARGE>
1

>  <JCHEM_PKA_STRONGEST_BASIC>
9.7607384

>  <JCHEM_POLAR_SURFACE_AREA>
3.24

>  <JCHEM_REFRACTIVITY>
102.6238

>  <JCHEM_ROTATABLE_BOND_COUNT>
3

>  <JCHEM_RULE_OF_FIVE>
1

>  <ALOGPS_SOLUBILITY>
6.89e-03 g/l

>  <JCHEM_TRADITIONAL_IUPAC>
cyclobenzaprine

>  <JCHEM_VEBER_RULE>
1

>  <DRUGBANK_ID>
DB00924

>  <DRUG_GROUPS>
approved

>  <GENERIC_NAME>
Cyclobenzaprine

>  <SYNONYMS>
(3-Dibenzo[a,d]cyclohepten-5-ylidene-propyl)-dimethyl-amine; N,N-dimethyl-5H-dibenzo(a,d)cycloheptene-Δ5,γ-propylamine

>  <BRANDS>
Amrix; FEXMID; Flexeril; Flexiban

>  <SALTS>
Cyclobenzaprine Hydrochloride

$$$$
Phenoxybenzamine
 OpenBabel02121510022D

 21 22  0  0  1  0  0  0  0  0999 V2000
    5.2220   -0.8250    0.0000 Cl  0  0  0  0  0  0  0  0  0  0  0  0
    3.7930    1.6500    0.0000 O   0  0  0  0  0  0  0  0  0  0  0  0
    3.0790   -0.4120    0.0000 N   0  0  0  0  0  0  0  0  0  0  0  0
    3.0790    0.4120    0.0000 C   0  0  3  0  0  0  0  0  0  0  0  0
    2.3640   -0.8250    0.0000 C   0  0  0  0  0  0  0  0  0  0  0  0
    3.7930   -0.8250    0.0000 C   0  0  0  0  0  0  0  0  0  0  0  0
    3.7930    0.8250    0.0000 C   0  0  0  0  0  0  0  0  0  0  0  0
    2.3640    0.8250    0.0000 C   0  0  0  0  0  0  0  0  0  0  0  0
    2.3640   -1.6500    0.0000 C   0  0  0  0  0  0  0  0  0  0  0  0
    4.5080   -0.4120    0.0000 C   0  0  0  0  0  0  0  0  0  0  0  0
    3.0790   -2.0620    0.0000 C   0  0  0  0  0  0  0  0  0  0  0  0
    1.6500   -2.0620    0.0000 C   0  0  0  0  0  0  0  0  0  0  0  0
    4.5080    2.0620    0.0000 C   0  0  0  0  0  0  0  0  0  0  0  0
    3.0790   -2.8870    0.0000 C   0  0  0  0  0  0  0  0  0  0  0  0
    1.6500   -2.8870    0.0000 C   0  0  0  0  0  0  0  0  0  0  0  0
    2.3640   -3.3000    0.0000 C   0  0  0  0  0  0  0  0  0  0  0  0
    4.5080    2.8870    0.0000 C   0  0  0  0  0  0  0  0  0  0  0  0
    5.2220    1.6500    0.0000 C   0  0  0  0  0  0  0  0  0  0  0  0
    5.2220    3.3000    0.0000 C   0  0  0  0  0  0  0  0  0  0  0  0
    5.9360    2.0620    0.0000 C   0  0  0  0  0  0  0  0  0  0  0  0
    5.9360    2.8870    0.0000 C   0  0  0  0  0  0  0  0  0  0  0  0
  1 10  1  0  0  0  0
  2  7  1  0  0  0  0
  2 13  1  0  0  0  0
  3  4  1  0  0  0  0
  3  5  1  0  0  0  0
  3  6  1  0  0  0  0
  4  7  1  0  0  0  0
  4  8  1  0  0  0  0
  5  9  1  0  0  0  0
  6 10  1  0  0  0  0
  9 11  2  0  0  0  0
  9 12  1  0  0  0  0
 11 14  1  0  0  0  0
 12 15  2  0  0  0  0
 13 17  2  0  0  0  0
 13 18  1  0  0  0  0
 14 16  2  0  0  0  0
 15 16  1  0  0  0  0
 17 19  1  0  0  0  0
 18 20  2  0  0  0  0
 19 21  2  0  0  0  0
 20 21  1  0  0  0  0
M  END
>  <DATABASE_ID>
DB00925

>  <DATABASE_NAME>
drugbank

>  <SMILES>
ClCCN(Cc1ccccc1)C(COc1ccccc1)C

>  <INCHI_IDENTIFIER>
InChI=1S/C18H22ClNO/c1-16(15-21-18-10-6-3-7-11-18)20(13-12-19)14-17-8-4-2-5-9-17/h2-11,16H,12-15H2,1H3

>  <INCHI_KEY>
InChIKey=QZVCTJOXCFMACW-UHFFFAOYSA-N

>  <JCHEM_ACCEPTOR_COUNT>
2

>  <JCHEM_AVERAGE_POLARIZABILITY>
34.092445

>  <JCHEM_BIOAVAILABILITY>
1

>  <JCHEM_DONOR_COUNT>
0

>  <JCHEM_EXACT_MASS>
303.13898

>  <JCHEM_FORMAL_CHARGE>
0

>  <JCHEM_FORMULA>
C18H22ClNO

>  <JCHEM_GHOSE_FILTER>
1

>  <JCHEM_IUPAC>
benzyl(2-chloroethyl)(1-phenoxypropan-2-yl)amine

>  <ALOGPS_LOGP>
4.2600002

>  <JCHEM_LOGP>
4.6397572

>  <ALOGPS_LOGS>
-4.4699998

>  <JCHEM_MASS>
303.82599

>  <JCHEM_MDDR_LIKE_RULE>
0

>  <JCHEM_NUMBER_OF_RINGS>
2

>  <JCHEM_PHYSIOLOGICAL_CHARGE>
1

>  <JCHEM_PKA_STRONGEST_BASIC>
7.9702039

>  <JCHEM_POLAR_SURFACE_AREA>
12.47

>  <JCHEM_REFRACTIVITY>
88.915001

>  <JCHEM_ROTATABLE_BOND_COUNT>
8

>  <JCHEM_RULE_OF_FIVE>
1

>  <ALOGPS_SOLUBILITY>
1.03e-02 g/l

>  <JCHEM_TRADITIONAL_IUPAC>
phenoxybenzamine

>  <JCHEM_VEBER_RULE>
1

>  <DRUGBANK_ID>
DB00925

>  <DRUG_GROUPS>
approved

>  <GENERIC_NAME>
Phenoxybenzamine

>  <SYNONYMS>
Fenossibenzamina; Fenoxibenzamina; Phenoxybenzaminum; POB

>  <BRANDS>
Dibenzyline

>  <SALTS>
Phenoxybenzamine Hydrochloride

$$$$
Famotidine
 OpenBabel02121510022D

 20 20  0  0  0  0  0  0  0  0999 V2000
    6.3950   -0.0210    0.0000 S   0  0  0  0  0  0  0  0  0  0  0  0
    2.8150    0.3180    0.0000 S   0  0  0  0  0  0  0  0  0  0  0  0
    8.8720    0.4660    0.0000 S   0  0  0  0  0  0  0  0  0  0  0  0
    3.0700   -0.4660    0.0000 O   0  0  0  0  0  0  0  0  0  0  0  0
    2.5600    1.1030    0.0000 O   0  0  0  0  0  0  0  0  0  0  0  0
    3.5990    0.5730    0.0000 N   0  0  0  0  0  0  0  0  0  0  0  0
    8.4600   -0.8030    0.0000 N   0  0  0  0  0  0  0  0  0  0  0  0
    4.0410   -0.7860    0.0000 N   0  0  0  0  0  0  0  0  0  0  0  0
    9.9120   -0.5730    0.0000 N   0  0  0  0  0  0  0  0  0  0  0  0
    2.0300    0.0630    0.0000 N   0  0  0  0  0  0  0  0  0  0  0  0
   11.3100   -0.2760    0.0000 N   0  0  0  0  0  0  0  0  0  0  0  0
   10.3530    0.7860    0.0000 N   0  0  0  0  0  0  0  0  0  0  0  0
    4.9970    0.2760    0.0000 C   0  0  0  0  0  0  0  0  0  0  0  0
    5.6100   -0.2760    0.0000 C   0  0  0  0  0  0  0  0  0  0  0  0
    7.0080   -0.5730    0.0000 C   0  0  0  0  0  0  0  0  0  0  0  0
    4.2120    0.0210    0.0000 C   0  0  0  0  0  0  0  0  0  0  0  0
    7.7920   -0.3180    0.0000 C   0  0  0  0  0  0  0  0  0  0  0  0
    8.0470    0.4660    0.0000 C   0  0  0  0  0  0  0  0  0  0  0  0
    9.1270   -0.3180    0.0000 C   0  0  0  0  0  0  0  0  0  0  0  0
   10.5250   -0.0210    0.0000 C   0  0  0  0  0  0  0  0  0  0  0  0
  1 14  1  0  0  0  0
  1 15  1  0  0  0  0
  2  4  2  0  0  0  0
  2  5  2  0  0  0  0
  2  6  1  0  0  0  0
  2 10  1  0  0  0  0
  3 18  1  0  0  0  0
  3 19  1  0  0  0  0
  6 16  2  3  0  0  0
  7 17  1  0  0  0  0
  7 19  2  0  0  0  0
  8 16  1  0  0  0  0
  9 19  1  0  0  0  0
  9 20  2  0  0  0  0
 11 20  1  0  0  0  0
 12 20  1  0  0  0  0
 13 14  1  0  0  0  0
 13 16  1  0  0  0  0
 15 17  1  0  0  0  0
 17 18  2  0  0  0  0
M  END
>  <DATABASE_ID>
DB00927

>  <DATABASE_NAME>
drugbank

>  <SMILES>
s1cc(nc1N=C(N)N)CSCCC(N)=NS(=O)(=O)N

>  <INCHI_IDENTIFIER>
InChI=1S/C8H15N7O2S3/c9-6(15-20(12,16)17)1-2-18-3-5-4-19-8(13-5)14-7(10)11/h4H,1-3H2,(H2,9,15)(H2,12,16,17)(H4,10,11,13,14)

>  <INCHI_KEY>
InChIKey=XUFQPHANEAPEMJ-UHFFFAOYSA-N

>  <JCHEM_ACCEPTOR_COUNT>
8

>  <JCHEM_AVERAGE_POLARIZABILITY>
32.01688

>  <JCHEM_BIOAVAILABILITY>
1

>  <JCHEM_DONOR_COUNT>
4

>  <JCHEM_EXACT_MASS>
337.04492

>  <JCHEM_FORMAL_CHARGE>
0

>  <JCHEM_FORMULA>
C8H15N7O2S3

>  <JCHEM_GHOSE_FILTER>
0

>  <JCHEM_IUPAC>
3-[({2-[(diaminomethylidene)amino]-1,3-thiazol-4-yl}methyl)sulfanyl]-N'-sulfamoylpropanimidamide

>  <ALOGPS_LOGP>
-0.2

>  <JCHEM_LOGP>
-1.9500905

>  <ALOGPS_LOGS>
-3.0999999

>  <JCHEM_MASS>
337.44501

>  <JCHEM_MDDR_LIKE_RULE>
0

>  <JCHEM_NUMBER_OF_RINGS>
1

>  <JCHEM_PHYSIOLOGICAL_CHARGE>
1

>  <JCHEM_PKA_STRONGEST_ACIDIC>
9.2872591

>  <JCHEM_PKA_STRONGEST_BASIC>
8.3789349

>  <JCHEM_POLAR_SURFACE_AREA>
175.83

>  <JCHEM_REFRACTIVITY>
80.461998

>  <JCHEM_ROTATABLE_BOND_COUNT>
6

>  <JCHEM_RULE_OF_FIVE>
1

>  <ALOGPS_SOLUBILITY>
2.71e-01 g/l

>  <JCHEM_TRADITIONAL_IUPAC>
pepcid

>  <JCHEM_VEBER_RULE>
0

>  <DRUGBANK_ID>
DB00927

>  <DRUG_GROUPS>
approved

>  <GENERIC_NAME>
Famotidine

>  <SYNONYMS>
Famotidina; Famotidinum

>  <BRANDS>
Amfamox; Antodine; Confobos; Cronol; Digervin; Dispromil; Duovel; Durater; Famocid; Famosan; Famotep; Famox; Famoxal; Famtac; Famulcer; Fanosin; Fluxid; Gaster; Lecedil; Motiax; Mylanta AR; Notidin; Nulceran; Panalba; Pepcid; Pepcid AC; Pepcid RPD; Pepcidin; Pepcidine; Pepdine; Pepfamin; Quamatel; Renapepsa; Rubacina; Sedanium-R; Supertidine; Tairal; Tipodex; Ulfagel; Ulfamid; Ulgarine; Vagostal

$$$$
Misoprostol
 OpenBabel02121510022D

 27 27  0  0  1  0  0  0  0  0999 V2000
   10.1450   -1.7360    0.0000 O   0  0  0  0  0  0  0  0  0  0  0  0
    7.7960   -3.4440    0.0000 O   0  0  0  0  0  0  0  0  0  0  0  0
    9.7100    1.6830    0.0000 O   0  0  0  0  0  0  0  0  0  0  0  0
    2.4350   -3.1800    0.0000 O   0  0  0  0  0  0  0  0  0  0  0  0
    2.8760   -1.8210    0.0000 O   0  0  0  0  0  0  0  0  0  0  0  0
    8.0260   -1.9920    0.0000 C   0  0  1  0  0  0  0  0  0  0  0  0
    8.6930   -1.5070    0.0000 C   0  0  2  0  0  0  0  0  0  0  0  0
    9.3610   -1.9920    0.0000 C   0  0  1  0  0  0  0  0  0  0  0  0
    9.1060   -2.7760    0.0000 C   0  0  0  0  0  0  0  0  0  0  0  0
    7.2410   -1.7360    0.0000 C   0  0  0  0  0  0  0  0  0  0  0  0
    8.2810   -2.7760    0.0000 C   0  0  0  0  0  0  0  0  0  0  0  0
    8.6930   -0.6820    0.0000 C   0  0  0  0  0  0  0  0  0  0  0  0
    6.6280   -2.2890    0.0000 C   0  0  0  0  0  0  0  0  0  0  0  0
    5.8430   -2.0340    0.0000 C   0  0  0  0  0  0  0  0  0  0  0  0
    9.4080   -0.2690    0.0000 C   0  0  0  0  0  0  0  0  0  0  0  0
   10.1220    0.9680    0.0000 C   0  0  3  0  0  0  0  0  0  0  0  0
    9.4080    0.5560    0.0000 C   0  0  0  0  0  0  0  0  0  0  0  0
    5.2300   -2.5860    0.0000 C   0  0  0  0  0  0  0  0  0  0  0  0
   10.8370    1.3810    0.0000 C   0  0  0  0  0  0  0  0  0  0  0  0
   10.5350    0.2540    0.0000 C   0  0  0  0  0  0  0  0  0  0  0  0
    4.4460   -2.3310    0.0000 C   0  0  0  0  0  0  0  0  0  0  0  0
   10.8370    2.2060    0.0000 C   0  0  0  0  0  0  0  0  0  0  0  0
   11.5510    2.6180    0.0000 C   0  0  0  0  0  0  0  0  0  0  0  0
    3.8320   -2.8830    0.0000 C   0  0  0  0  0  0  0  0  0  0  0  0
   11.5510    3.4440    0.0000 C   0  0  0  0  0  0  0  0  0  0  0  0
    3.0480   -2.6280    0.0000 C   0  0  0  0  0  0  0  0  0  0  0  0
    1.6500   -2.9250    0.0000 C   0  0  0  0  0  0  0  0  0  0  0  0
  2 11  2  0  0  0  0
  3 16  1  0  0  0  0
  4 26  1  0  0  0  0
  4 27  1  0  0  0  0
  5 26  2  0  0  0  0
  6  7  1  0  0  0  0
  6 10  1  6  0  0  0
  6 11  1  0  0  0  0
  7  8  1  0  0  0  0
  7 12  1  1  0  0  0
  8  1  1  6  0  0  0
  8  9  1  0  0  0  0
  9 11  1  0  0  0  0
 10 13  1  0  0  0  0
 12 15  2  0  0  0  0
 13 14  1  0  0  0  0
 14 18  1  0  0  0  0
 15 17  1  0  0  0  0
 16 17  1  0  0  0  0
 16 19  1  0  0  0  0
 16 20  1  0  0  0  0
 18 21  1  0  0  0  0
 19 22  1  0  0  0  0
 21 24  1  0  0  0  0
 22 23  1  0  0  0  0
 23 25  1  0  0  0  0
 24 26  1  0  0  0  0
M  END
>  <DATABASE_ID>
DB00929

>  <DATABASE_NAME>
drugbank

>  <SMILES>
O=C1C[C@@H](O)[C@H](\C=C\CC(O)(CCCC)C)[C@H]1CCCCCCC(OC)=O

>  <INCHI_IDENTIFIER>
InChI=1S/C22H38O5/c1-4-5-14-22(2,26)15-10-12-18-17(19(23)16-20(18)24)11-8-6-7-9-13-21(25)27-3/h10,12,17-18,20,24,26H,4-9,11,13-16H2,1-3H3/b12-10+/t17-,18-,20-,22?/m1/s1

>  <INCHI_KEY>
InChIKey=OJLOPKGSLYJEMD-URPKTTJQSA-N

>  <JCHEM_ACCEPTOR_COUNT>
4

>  <JCHEM_AVERAGE_POLARIZABILITY>
45.377895

>  <JCHEM_BIOAVAILABILITY>
1

>  <JCHEM_DONOR_COUNT>
2

>  <JCHEM_EXACT_MASS>
382.27191

>  <JCHEM_FORMAL_CHARGE>
0

>  <JCHEM_FORMULA>
C22H38O5

>  <JCHEM_GHOSE_FILTER>
1

>  <JCHEM_IUPAC>
methyl 7-[(1R,2R,3R)-3-hydroxy-2-[(1E)-4-hydroxy-4-methyloct-1-en-1-yl]-5-oxocyclopentyl]heptanoate

>  <ALOGPS_LOGP>
3.8800001

>  <JCHEM_LOGP>
3.8577549

>  <ALOGPS_LOGS>
-4.3699999

>  <JCHEM_MASS>
382.53409

>  <JCHEM_MDDR_LIKE_RULE>
0

>  <JCHEM_NUMBER_OF_RINGS>
1

>  <JCHEM_PHYSIOLOGICAL_CHARGE>
0

>  <JCHEM_PKA>
17.42635

>  <JCHEM_PKA_STRONGEST_ACIDIC>
14.680623

>  <JCHEM_PKA_STRONGEST_BASIC>
-0.95033413

>  <JCHEM_POLAR_SURFACE_AREA>
83.830002

>  <JCHEM_REFRACTIVITY>
107.8798

>  <JCHEM_ROTATABLE_BOND_COUNT>
14

>  <JCHEM_RULE_OF_FIVE>
1

>  <ALOGPS_SOLUBILITY>
1.64e-02 g/l

>  <JCHEM_TRADITIONAL_IUPAC>
misoprostol

>  <JCHEM_VEBER_RULE>
0

>  <DRUGBANK_ID>
DB00929

>  <DRUG_GROUPS>
approved

>  <GENERIC_NAME>
Misoprostol

>  <SYNONYMS>
Misoprostolum

$$$$
Colesevelam
 OpenBabel02121510022D

 69 60  0  0  1  0  0  0  0  0999 V2000
   -0.2060   -1.0020    0.0000 C   0  0  0  0  0  0  0  0  0  0  0  0
    0.5080   -0.5890    0.0000 C   0  0  0  0  0  0  0  0  0  0  0  0
    1.0920   -1.1730    0.0000 C   0  0  3  0  0  0  0  0  0  0  0  0
    1.8060   -0.7600    0.0000 C   0  0  0  0  0  0  0  0  0  0  0  0
   -1.0310   -1.0020    0.0000 H   0  0  0  0  0  0  0  0  0  0  0  0
    2.6310   -0.7600    0.0000 H   0  0  0  0  0  0  0  0  0  0  0  0
    1.0920   -1.9980    0.0000 C   0  0  0  0  0  0  0  0  0  0  0  0
    1.6750   -2.5810    0.0000 N   0  3  0  0  0  0  0  0  0  0  0  0
    2.4750   -2.6220    0.0000 Cl  0  5  0  0  0  0  0  0  0  0  0  0
    4.6590   -0.8810    0.0000 C   0  0  0  0  0  0  0  0  0  0  0  0
    5.3740   -0.4690    0.0000 C   0  0  0  0  0  0  0  0  0  0  0  0
    5.9570   -1.0520    0.0000 C   0  0  3  0  0  0  0  0  0  0  0  0
    6.6720   -0.6400    0.0000 C   0  0  0  0  0  0  0  0  0  0  0  0
    3.8340   -0.8810    0.0000 H   0  0  0  0  0  0  0  0  0  0  0  0
    7.4970   -0.6400    0.0000 H   0  0  0  0  0  0  0  0  0  0  0  0
    5.9570   -1.8770    0.0000 C   0  0  0  0  0  0  0  0  0  0  0  0
    6.5400   -2.4610    0.0000 N   0  3  0  0  0  0  0  0  0  0  0  0
    7.3410   -2.5020    0.0000 Cl  0  5  0  0  0  0  0  0  0  0  0  0
    9.5800   -0.6750    0.0000 C   0  0  0  0  0  0  0  0  0  0  0  0
   10.2940   -0.2630    0.0000 C   0  0  0  0  0  0  0  0  0  0  0  0
   10.8780   -0.8460    0.0000 C   0  0  3  0  0  0  0  0  0  0  0  0
   11.5920   -0.4330    0.0000 C   0  0  0  0  0  0  0  0  0  0  0  0
    8.7550   -0.6750    0.0000 H   0  0  0  0  0  0  0  0  0  0  0  0
   12.4170   -0.4330    0.0000 H   0  0  0  0  0  0  0  0  0  0  0  0
   10.8780   -1.6710    0.0000 C   0  0  0  0  0  0  0  0  0  0  0  0
   11.4610   -2.2540    0.0000 N   0  3  0  0  0  0  0  0  0  0  0  0
   12.2610   -2.2960    0.0000 Cl  0  5  0  0  0  0  0  0  0  0  0  0
   14.2940   -0.6160    0.0000 C   0  0  0  0  0  0  0  0  0  0  0  0
   15.0090   -0.2040    0.0000 C   0  0  0  0  0  0  0  0  0  0  0  0
   15.5920   -0.7870    0.0000 C   0  0  3  0  0  0  0  0  0  0  0  0
   16.3060   -0.3740    0.0000 C   0  0  0  0  0  0  0  0  0  0  0  0
   13.4690   -0.6160    0.0000 H   0  0  0  0  0  0  0  0  0  0  0  0
   17.1320   -0.3740    0.0000 H   0  0  0  0  0  0  0  0  0  0  0  0
   15.5920   -1.6120    0.0000 C   0  0  0  0  0  0  0  0  0  0  0  0
   16.1750   -2.1950    0.0000 N   0  3  0  0  0  0  0  0  0  0  0  0
   16.9750   -2.2370    0.0000 Cl  0  5  0  0  0  0  0  0  0  0  0  0
    5.9570   -3.0440    0.0000 C   0  0  0  0  0  0  0  0  0  0  0  0
    6.3700   -3.7580    0.0000 C   0  0  3  0  0  0  0  0  0  0  0  0
    7.1950   -3.7580    0.0000 O   0  0  0  0  0  0  0  0  0  0  0  0
    6.1560   -4.5550    0.0000 C   0  0  0  0  0  0  0  0  0  0  0  0
    6.5690   -5.2700    0.0000 N   0  0  0  0  0  0  0  0  0  0  0  0
    5.9850   -5.8530    0.0000 C   0  0  0  0  0  0  0  0  0  0  0  0
    5.9850   -6.6780    0.0000 C   0  0  3  0  0  0  0  0  0  0  0  0
    6.7000   -7.0910    0.0000 C   0  0  0  0  0  0  0  0  0  0  0  0
    5.2710   -7.0910    0.0000 C   0  0  0  0  0  0  0  0  0  0  0  0
    4.5560   -6.6780    0.0000 C   0  0  0  0  0  0  0  0  0  0  0  0
    7.5250   -7.0910    0.0000 H   0  0  0  0  0  0  0  0  0  0  0  0
    3.7310   -6.6780    0.0000 H   0  0  0  0  0  0  0  0  0  0  0  0
   11.8740   -2.9690    0.0000 C   0  0  0  0  0  0  0  0  0  0  0  0
   11.4610   -3.6830    0.0000 C   0  0  0  0  0  0  0  0  0  0  0  0
   11.8740   -4.3980    0.0000 C   0  0  0  0  0  0  0  0  0  0  0  0
   11.4610   -5.1120    0.0000 C   0  0  0  0  0  0  0  0  0  0  0  0
   11.8740   -5.8270    0.0000 C   0  0  0  0  0  0  0  0  0  0  0  0
   11.4610   -6.5410    0.0000 C   0  0  0  0  0  0  0  0  0  0  0  0
   11.8740   -7.2560    0.0000 C   0  0  0  0  0  0  0  0  0  0  0  0
   11.4610   -7.9700    0.0000 C   0  0  0  0  0  0  0  0  0  0  0  0
   11.8740   -8.6840    0.0000 C   0  0  0  0  0  0  0  0  0  0  0  0
   11.4610   -9.3990    0.0000 C   0  0  0  0  0  0  0  0  0  0  0  0
   16.5880   -2.9100    0.0000 C   0  0  0  0  0  0  0  0  0  0  0  0
   16.1750   -3.6240    0.0000 C   0  0  0  0  0  0  0  0  0  0  0  0
   16.5880   -4.3390    0.0000 C   0  0  0  0  0  0  0  0  0  0  0  0
   16.1750   -5.0530    0.0000 C   0  0  0  0  0  0  0  0  0  0  0  0
   16.5880   -5.7680    0.0000 C   0  0  0  0  0  0  0  0  0  0  0  0
   16.1750   -6.4820    0.0000 C   0  0  0  0  0  0  0  0  0  0  0  0
   16.5880   -7.1970    0.0000 N   0  3  0  0  0  0  0  0  0  0  0  0
   15.8730   -7.6090    0.0000 C   0  0  0  0  0  0  0  0  0  0  0  0
   17.0000   -7.9110    0.0000 C   0  0  0  0  0  0  0  0  0  0  0  0
   17.3020   -6.7840    0.0000 C   0  0  0  0  0  0  0  0  0  0  0  0
   17.6490   -7.3960    0.0000 Cl  0  5  0  0  0  0  0  0  0  0  0  0
  1  2  1  0  0  0  0
  1  5  1  0  0  0  0
  2  3  1  0  0  0  0
  3  4  1  0  0  0  0
  3  7  1  0  0  0  0
  4  6  1  0  0  0  0
  7  8  1  0  0  0  0
 10 11  1  0  0  0  0
 10 14  1  0  0  0  0
 11 12  1  0  0  0  0
 12 13  1  0  0  0  0
 12 16  1  0  0  0  0
 13 15  1  0  0  0  0
 16 17  1  0  0  0  0
 17 37  1  0  0  0  0
 19 20  1  0  0  0  0
 19 23  1  0  0  0  0
 20 21  1  0  0  0  0
 21 22  1  0  0  0  0
 21 25  1  0  0  0  0
 22 24  1  0  0  0  0
 25 26  1  0  0  0  0
 26 49  1  0  0  0  0
 28 29  1  0  0  0  0
 28 32  1  0  0  0  0
 29 30  1  0  0  0  0
 30 31  1  0  0  0  0
 30 34  1  0  0  0  0
 31 33  1  0  0  0  0
 34 35  1  0  0  0  0
 35 59  1  0  0  0  0
 37 38  1  0  0  0  0
 38 39  1  0  0  0  0
 38 40  1  0  0  0  0
 40 41  1  0  0  0  0
 41 42  1  0  0  0  0
 42 43  1  0  0  0  0
 43 44  1  0  0  0  0
 43 45  1  0  0  0  0
 44 47  1  0  0  0  0
 45 46  1  0  0  0  0
 46 48  1  0  0  0  0
 49 50  1  0  0  0  0
 50 51  1  0  0  0  0
 51 52  1  0  0  0  0
 52 53  1  0  0  0  0
 53 54  1  0  0  0  0
 54 55  1  0  0  0  0
 55 56  1  0  0  0  0
 56 57  1  0  0  0  0
 57 58  1  0  0  0  0
 59 60  1  0  0  0  0
 60 61  1  0  0  0  0
 61 62  1  0  0  0  0
 62 63  1  0  0  0  0
 63 64  1  0  0  0  0
 64 65  1  0  0  0  0
 65 66  1  0  0  0  0
 65 67  1  0  0  0  0
 65 68  1  0  0  0  0
M  CHG  8   8   1   9  -1  17   1  18  -1  26   1  27  -1  35   1  36  -1
M  CHG  2  65   1  69  -1
M  END
>  <DATABASE_ID>
DB00930

>  <DATABASE_NAME>
drugbank

>  <JCHEM_FORMAL_CHARGE>
0

>  <DRUGBANK_ID>
DB00930

>  <DRUG_GROUPS>
approved

>  <GENERIC_NAME>
Colesevelam

>  <BRANDS>
CholestaGel; Lodalis; Welchol

>  <SALTS>
Colesevelam hydrochloride

$$$$
Tipranavir
 OpenBabel02121510022D

 42 45  0  0  1  0  0  0  0  0999 V2000
    5.2220   -1.6900    0.0000 S   0  0  0  0  0  0  0  0  0  0  0  0
    2.7770   -4.0550    0.0000 F   0  0  0  0  0  0  0  0  0  0  0  0
    1.9520   -2.6260    0.0000 F   0  0  0  0  0  0  0  0  0  0  0  0
    1.6500   -3.7530    0.0000 F   0  0  0  0  0  0  0  0  0  0  0  0
    8.0800    0.7850    0.0000 O   0  0  0  0  0  0  0  0  0  0  0  0
   10.2240   -0.4530    0.0000 O   0  0  0  0  0  0  0  0  0  0  0  0
    7.3660   -0.4530    0.0000 O   0  0  0  0  0  0  0  0  0  0  0  0
    5.6350   -2.4050    0.0000 O   0  0  0  0  0  0  0  0  0  0  0  0
    4.8100   -0.9760    0.0000 O   0  0  0  0  0  0  0  0  0  0  0  0
    5.9370   -1.2780    0.0000 N   0  0  0  0  0  0  0  0  0  0  0  0
    3.7940   -1.6900    0.0000 N   0  0  0  0  0  0  0  0  0  0  0  0
    8.7950    1.1970    0.0000 C   0  0  1  0  0  0  0  0  0  0  0  0
    9.5090    0.7850    0.0000 C   0  0  0  0  0  0  0  0  0  0  0  0
    9.2080    1.9120    0.0000 C   0  0  0  0  0  0  0  0  0  0  0  0
    8.3820    1.9120    0.0000 C   0  0  0  0  0  0  0  0  0  0  0  0
    8.7950   -0.4530    0.0000 C   0  0  0  0  0  0  0  0  0  0  0  0
    9.5090   -0.0400    0.0000 C   0  0  0  0  0  0  0  0  0  0  0  0
   10.0320    1.9120    0.0000 C   0  0  0  0  0  0  0  0  0  0  0  0
    8.7950   -1.2780    0.0000 C   0  0  2  0  0  0  0  0  0  0  0  0
    7.5570    1.9120    0.0000 C   0  0  0  0  0  0  0  0  0  0  0  0
    8.0800   -0.0400    0.0000 C   0  0  0  0  0  0  0  0  0  0  0  0
    9.5090   -1.6900    0.0000 C   0  0  0  0  0  0  0  0  0  0  0  0
    8.0800   -1.6900    0.0000 C   0  0  0  0  0  0  0  0  0  0  0  0
   10.4450    2.6260    0.0000 C   0  0  0  0  0  0  0  0  0  0  0  0
    7.1450    2.6260    0.0000 C   0  0  0  0  0  0  0  0  0  0  0  0
    9.5090   -2.5160    0.0000 C   0  0  0  0  0  0  0  0  0  0  0  0
    7.3660   -1.2780    0.0000 C   0  0  0  0  0  0  0  0  0  0  0  0
    8.0800   -2.5160    0.0000 C   0  0  0  0  0  0  0  0  0  0  0  0
   10.0320    3.3400    0.0000 C   0  0  0  0  0  0  0  0  0  0  0  0
   11.2700    2.6260    0.0000 C   0  0  0  0  0  0  0  0  0  0  0  0
    6.6520   -1.6900    0.0000 C   0  0  0  0  0  0  0  0  0  0  0  0
    7.3660   -2.9280    0.0000 C   0  0  0  0  0  0  0  0  0  0  0  0
    6.6520   -2.5160    0.0000 C   0  0  0  0  0  0  0  0  0  0  0  0
   10.4450    4.0550    0.0000 C   0  0  0  0  0  0  0  0  0  0  0  0
   11.6820    3.3400    0.0000 C   0  0  0  0  0  0  0  0  0  0  0  0
   11.2700    4.0550    0.0000 C   0  0  0  0  0  0  0  0  0  0  0  0
    4.5080   -2.1030    0.0000 C   0  0  0  0  0  0  0  0  0  0  0  0
    4.5080   -2.9280    0.0000 C   0  0  0  0  0  0  0  0  0  0  0  0
    3.7940   -3.3400    0.0000 C   0  0  0  0  0  0  0  0  0  0  0  0
    3.0790   -2.9280    0.0000 C   0  0  0  0  0  0  0  0  0  0  0  0
    3.0790   -2.1030    0.0000 C   0  0  0  0  0  0  0  0  0  0  0  0
    2.3640   -3.3400    0.0000 C   0  0  0  0  0  0  0  0  0  0  0  0
  1  8  2  0  0  0  0
  1  9  2  0  0  0  0
  1 10  1  0  0  0  0
  1 37  1  0  0  0  0
  2 42  1  0  0  0  0
  3 42  1  0  0  0  0
  4 42  1  0  0  0  0
  5 12  1  0  0  0  0
  5 21  1  0  0  0  0
  6 17  2  0  0  0  0
  7 21  1  0  0  0  0
 10 31  1  0  0  0  0
 11 37  1  0  0  0  0
 11 41  2  0  0  0  0
 12 13  1  0  0  0  0
 12 14  1  6  0  0  0
 12 15  1  0  0  0  0
 13 17  1  0  0  0  0
 14 18  1  0  0  0  0
 15 20  1  0  0  0  0
 16 17  1  0  0  0  0
 16 21  2  0  0  0  0
 18 24  1  0  0  0  0
 19 16  1  6  0  0  0
 19 22  1  0  0  0  0
 19 23  1  0  0  0  0
 20 25  1  0  0  0  0
 22 26  1  0  0  0  0
 23 27  2  0  0  0  0
 23 28  1  0  0  0  0
 24 29  2  0  0  0  0
 24 30  1  0  0  0  0
 27 31  1  0  0  0  0
 28 32  2  0  0  0  0
 29 34  1  0  0  0  0
 30 35  2  0  0  0  0
 31 33  2  0  0  0  0
 32 33  1  0  0  0  0
 34 36  2  0  0  0  0
 35 36  1  0  0  0  0
 37 38  2  0  0  0  0
 38 39  1  0  0  0  0
 39 40  2  0  0  0  0
 40 41  1  0  0  0  0
 40 42  1  0  0  0  0
M  END
>  <DATABASE_ID>
DB00932

>  <DATABASE_NAME>
drugbank

>  <SMILES>
S(=O)(=O)(Nc1cc(ccc1)[C@@H](CC)C=1C(=O)C[C@](OC=1O)(CCc1ccccc1)CCC)c1ncc(cc1)C(F)(F)F

>  <INCHI_IDENTIFIER>
InChI=1S/C31H33F3N2O5S/c1-3-16-30(17-15-21-9-6-5-7-10-21)19-26(37)28(29(38)41-30)25(4-2)22-11-8-12-24(18-22)36-42(39,40)27-14-13-23(20-35-27)31(32,33)34/h5-14,18,20,25,36,38H,3-4,15-17,19H2,1-2H3/t25-,30-/m1/s1

>  <INCHI_KEY>
InChIKey=NZPXPXAGXYTROM-FYBSXPHGSA-N

>  <JCHEM_ACCEPTOR_COUNT>
6

>  <JCHEM_AVERAGE_POLARIZABILITY>
61.306488

>  <JCHEM_BIOAVAILABILITY>
0

>  <JCHEM_DONOR_COUNT>
2

>  <JCHEM_EXACT_MASS>
602.20624

>  <JCHEM_FORMAL_CHARGE>
0

>  <JCHEM_FORMULA>
C31H33F3N2O5S

>  <JCHEM_GHOSE_FILTER>
0

>  <JCHEM_IUPAC>
N-{3-[(1R)-1-[(2R)-6-hydroxy-4-oxo-2-(2-phenylethyl)-2-propyl-3,4-dihydro-2H-pyran-5-yl]propyl]phenyl}-5-(trifluoromethyl)pyridine-2-sulfonamide

>  <ALOGPS_LOGP>
5.71

>  <JCHEM_LOGP>
7.8143587

>  <ALOGPS_LOGS>
-6.46

>  <JCHEM_MASS>
602.664

>  <JCHEM_MDDR_LIKE_RULE>
1

>  <JCHEM_NUMBER_OF_RINGS>
4

>  <JCHEM_PHYSIOLOGICAL_CHARGE>
-1

>  <JCHEM_PKA>
7.8374605

>  <JCHEM_PKA_STRONGEST_ACIDIC>
5.956316

>  <JCHEM_PKA_STRONGEST_BASIC>
-3.2995758

>  <JCHEM_POLAR_SURFACE_AREA>
105.59

>  <JCHEM_REFRACTIVITY>
163.5574

>  <JCHEM_ROTATABLE_BOND_COUNT>
11

>  <JCHEM_RULE_OF_FIVE>
0

>  <ALOGPS_SOLUBILITY>
2.07e-04 g/l

>  <JCHEM_TRADITIONAL_IUPAC>
tipranavir

>  <JCHEM_VEBER_RULE>
0

>  <DRUGBANK_ID>
DB00932

>  <DRUG_GROUPS>
approved; investigational

>  <GENERIC_NAME>
Tipranavir

>  <BRANDS>
Aptivus

$$$$
Mesoridazine
 OpenBabel02121510022D

 26 29  0  0  1  0  0  0  0  0999 V2000
    3.8500   -2.6670    0.0000 S   0  0  0  0  0  0  0  0  0  0  0  0
    6.7620   -0.9970    0.0000 S   0  0  3  0  0  0  0  0  0  0  0  0
    6.7590   -0.1720    0.0000 O   0  0  0  0  0  0  0  0  0  0  0  0
    3.8500    1.4580    0.0000 N   0  0  0  0  0  0  0  0  0  0  0  0
    3.8500   -1.0170    0.0000 N   0  0  0  0  0  0  0  0  0  0  0  0
    3.1350    1.0460    0.0000 C   0  0  3  0  0  0  0  0  0  0  0  0
    2.4210    1.4580    0.0000 C   0  0  0  0  0  0  0  0  0  0  0  0
    3.1350    0.2200    0.0000 C   0  0  0  0  0  0  0  0  0  0  0  0
    2.4210    2.2830    0.0000 C   0  0  0  0  0  0  0  0  0  0  0  0
    3.8500    2.2830    0.0000 C   0  0  0  0  0  0  0  0  0  0  0  0
    3.1350    2.6960    0.0000 C   0  0  0  0  0  0  0  0  0  0  0  0
    3.8500   -0.1920    0.0000 C   0  0  0  0  0  0  0  0  0  0  0  0
    4.5640    1.0460    0.0000 C   0  0  0  0  0  0  0  0  0  0  0  0
    4.5640   -1.4300    0.0000 C   0  0  0  0  0  0  0  0  0  0  0  0
    3.1350   -1.4300    0.0000 C   0  0  0  0  0  0  0  0  0  0  0  0
    4.5640   -2.2540    0.0000 C   0  0  0  0  0  0  0  0  0  0  0  0
    3.1350   -2.2540    0.0000 C   0  0  0  0  0  0  0  0  0  0  0  0
    5.3020   -0.9880    0.0000 C   0  0  0  0  0  0  0  0  0  0  0  0
    2.3980   -0.9880    0.0000 C   0  0  0  0  0  0  0  0  0  0  0  0
    5.3020   -2.6960    0.0000 C   0  0  0  0  0  0  0  0  0  0  0  0
    6.0490   -1.4120    0.0000 C   0  0  0  0  0  0  0  0  0  0  0  0
    2.3980   -2.6960    0.0000 C   0  0  0  0  0  0  0  0  0  0  0  0
    6.0490   -2.2720    0.0000 C   0  0  0  0  0  0  0  0  0  0  0  0
    1.6500   -1.4120    0.0000 C   0  0  0  0  0  0  0  0  0  0  0  0
    1.6500   -2.2720    0.0000 C   0  0  0  0  0  0  0  0  0  0  0  0
    7.4780   -1.4070    0.0000 C   0  0  0  0  0  0  0  0  0  0  0  0
  1 16  1  0  0  0  0
  1 17  1  0  0  0  0
  2  3  2  0  0  0  0
  2 21  1  0  0  0  0
  2 26  1  0  0  0  0
  4  6  1  0  0  0  0
  4 10  1  0  0  0  0
  4 13  1  0  0  0  0
  5 12  1  0  0  0  0
  5 14  1  0  0  0  0
  5 15  1  0  0  0  0
  6  7  1  0  0  0  0
  6  8  1  0  0  0  0
  7  9  1  0  0  0  0
  8 12  1  0  0  0  0
  9 11  1  0  0  0  0
 10 11  1  0  0  0  0
 14 16  2  0  0  0  0
 14 18  1  0  0  0  0
 15 17  2  0  0  0  0
 15 19  1  0  0  0  0
 16 20  1  0  0  0  0
 17 22  1  0  0  0  0
 18 21  2  0  0  0  0
 19 24  2  0  0  0  0
 20 23  2  0  0  0  0
 21 23  1  0  0  0  0
 22 25  2  0  0  0  0
 24 25  1  0  0  0  0
M  END
>  <DATABASE_ID>
DB00933

>  <DATABASE_NAME>
drugbank

>  <SMILES>
S1c2c(N(c3c1cccc3)CCC1N(CCCC1)C)cc(S(=O)C)cc2

>  <INCHI_IDENTIFIER>
InChI=1S/C21H26N2OS2/c1-22-13-6-5-7-16(22)12-14-23-18-8-3-4-9-20(18)25-21-11-10-17(26(2)24)15-19(21)23/h3-4,8-11,15-16H,5-7,12-14H2,1-2H3

>  <INCHI_KEY>
InChIKey=SLVMESMUVMCQIY-UHFFFAOYSA-N

>  <JCHEM_ACCEPTOR_COUNT>
3

>  <JCHEM_AVERAGE_POLARIZABILITY>
43.831882

>  <JCHEM_BIOAVAILABILITY>
1

>  <JCHEM_DONOR_COUNT>
0

>  <JCHEM_EXACT_MASS>
386.14865

>  <JCHEM_FORMAL_CHARGE>
0

>  <JCHEM_FORMULA>
C21H26N2OS2

>  <JCHEM_GHOSE_FILTER>
1

>  <JCHEM_IUPAC>
2-methanesulfinyl-10-[2-(1-methylpiperidin-2-yl)ethyl]-10H-phenothiazine

>  <ALOGPS_LOGP>
3.8299999

>  <JCHEM_LOGP>
3.5745034

>  <ALOGPS_LOGS>
-3.7

>  <JCHEM_MASS>
386.57401

>  <JCHEM_MDDR_LIKE_RULE>
0

>  <JCHEM_NUMBER_OF_RINGS>
4

>  <JCHEM_PHYSIOLOGICAL_CHARGE>
1

>  <JCHEM_PKA_STRONGEST_ACIDIC>
19.359158

>  <JCHEM_PKA_STRONGEST_BASIC>
8.1913462

>  <JCHEM_POLAR_SURFACE_AREA>
23.549999

>  <JCHEM_REFRACTIVITY>
115.1253

>  <JCHEM_ROTATABLE_BOND_COUNT>
4

>  <JCHEM_RULE_OF_FIVE>
1

>  <ALOGPS_SOLUBILITY>
7.67e-02 g/l

>  <JCHEM_TRADITIONAL_IUPAC>
mesoridazine

>  <JCHEM_VEBER_RULE>
1

>  <DRUGBANK_ID>
DB00933

>  <DRUG_GROUPS>
approved

>  <GENERIC_NAME>
Mesoridazine

>  <SYNONYMS>
10-(2(1-Methyl-2-piperidyl)ethyl)-2-(methylsulfinyl)phenothiazine; 2-Methanesulfinyl-10-[2-(1-methyl-piperidin-2-yl)-ethyl]-10H-phenothiazine; Thioridazine Thiomethyl Sulfoxide; thioridazine-2-sulfoxide; TPS-23

>  <BRANDS>
Lidanar; Lidanil; Serentil

>  <SALTS>
Mesoridazine mesilate

$$$$
Maprotiline
 OpenBabel02121510022D

 21 24  0  0  0  0  0  0  0  0999 V2000
    5.3050   -1.8590    0.0000 N   0  0  0  0  0  0  0  0  0  0  0  0
    4.5950    0.7910    0.0000 C   0  0  3  0  0  0  0  0  0  0  0  0
    4.8000    1.5560    0.0000 C   0  0  3  0  0  0  0  0  0  0  0  0
    3.8200    2.2280    0.0000 C   0  0  0  0  0  0  0  0  0  0  0  0
    4.5060    2.6240    0.0000 C   0  0  0  0  0  0  0  0  0  0  0  0
    6.0460    0.1900    0.0000 C   0  0  0  0  0  0  0  0  0  0  0  0
    3.2230   -0.0010    0.0000 C   0  0  0  0  0  0  0  0  0  0  0  0
    4.3900    0.0260    0.0000 C   0  0  0  0  0  0  0  0  0  0  0  0
    6.2510    0.9550    0.0000 C   0  0  0  0  0  0  0  0  0  0  0  0
    2.8270    0.6850    0.0000 C   0  0  0  0  0  0  0  0  0  0  0  0
    4.9500   -0.5340    0.0000 C   0  0  0  0  0  0  0  0  0  0  0  0
    6.6200   -0.4020    0.0000 C   0  0  0  0  0  0  0  0  0  0  0  0
    2.8220   -0.7220    0.0000 C   0  0  0  0  0  0  0  0  0  0  0  0
    7.0450    1.1810    0.0000 C   0  0  0  0  0  0  0  0  0  0  0  0
    2.0020    0.6980    0.0000 C   0  0  0  0  0  0  0  0  0  0  0  0
    4.7450   -1.2990    0.0000 C   0  0  0  0  0  0  0  0  0  0  0  0
    7.4190   -0.1950    0.0000 C   0  0  0  0  0  0  0  0  0  0  0  0
    1.9970   -0.7280    0.0000 C   0  0  0  0  0  0  0  0  0  0  0  0
    7.6320    0.6020    0.0000 C   0  0  0  0  0  0  0  0  0  0  0  0
    1.5840   -0.0140    0.0000 C   0  0  0  0  0  0  0  0  0  0  0  0
    5.1000   -2.6240    0.0000 C   0  0  0  0  0  0  0  0  0  0  0  0
  1 16  1  0  0  0  0
  1 21  1  0  0  0  0
  2  4  1  0  0  0  0
  2  6  1  0  0  0  0
  2  7  1  0  0  0  0
  2  8  1  0  0  0  0
  3  5  1  0  0  0  0
  3  9  1  0  0  0  0
  3 10  1  0  0  0  0
  4  5  1  0  0  0  0
  6  9  2  0  0  0  0
  6 12  1  0  0  0  0
  7 10  2  0  0  0  0
  7 13  1  0  0  0  0
  8 11  1  0  0  0  0
  9 14  1  0  0  0  0
 10 15  1  0  0  0  0
 11 16  1  0  0  0  0
 12 17  2  0  0  0  0
 13 18  2  0  0  0  0
 14 19  2  0  0  0  0
 15 20  2  0  0  0  0
 17 19  1  0  0  0  0
 18 20  1  0  0  0  0
M  END
>  <DATABASE_ID>
DB00934

>  <DATABASE_NAME>
drugbank

>  <SMILES>
N(CCCC12CCC(c3c1cccc3)c1c2cccc1)C

>  <INCHI_IDENTIFIER>
InChI=1S/C20H23N/c1-21-14-6-12-20-13-11-15(16-7-2-4-9-18(16)20)17-8-3-5-10-19(17)20/h2-5,7-10,15,21H,6,11-14H2,1H3

>  <INCHI_KEY>
InChIKey=QSLMDECMDJKHMQ-UHFFFAOYSA-N

>  <JCHEM_ACCEPTOR_COUNT>
1

>  <JCHEM_AVERAGE_POLARIZABILITY>
33.5728

>  <JCHEM_BIOAVAILABILITY>
1

>  <JCHEM_DONOR_COUNT>
1

>  <JCHEM_EXACT_MASS>
277.18304

>  <JCHEM_FORMAL_CHARGE>
0

>  <JCHEM_FORMULA>
C20H23N

>  <JCHEM_GHOSE_FILTER>
1

>  <JCHEM_IUPAC>
methyl(3-{tetracyclo[6.6.2.0^{2,7}.0^{9,14}]hexadeca-2(7),3,5,9(14),10,12-hexaen-1-yl}propyl)amine

>  <ALOGPS_LOGP>
4.8899999

>  <JCHEM_LOGP>
4.3721046

>  <ALOGPS_LOGS>
-6.27

>  <JCHEM_MASS>
277.40329

>  <JCHEM_MDDR_LIKE_RULE>
0

>  <JCHEM_NUMBER_OF_RINGS>
4

>  <JCHEM_PHYSIOLOGICAL_CHARGE>
1

>  <JCHEM_PKA_STRONGEST_BASIC>
10.542803

>  <JCHEM_POLAR_SURFACE_AREA>
12.03

>  <JCHEM_REFRACTIVITY>
99.301697

>  <JCHEM_ROTATABLE_BOND_COUNT>
4

>  <JCHEM_RULE_OF_FIVE>
1

>  <ALOGPS_SOLUBILITY>
1.50e-04 g/l

>  <JCHEM_TRADITIONAL_IUPAC>
maprotiline

>  <JCHEM_VEBER_RULE>
1

>  <DRUGBANK_ID>
DB00934

>  <DRUG_GROUPS>
approved

>  <GENERIC_NAME>
Maprotiline

>  <SYNONYMS>
Maprotilina; Maprotilinum; Maprotylina

>  <SALTS>
Maprotiline Hydrochloride

$$$$
Salicylic acid
 OpenBabel02121510022D

 10 10  0  0  0  0  0  0  0  0999 V2000
    2.0930   -0.0500    0.0000 O   0  0  0  0  0  0  0  0  0  0  0  0
    4.2360    1.1880    0.0000 O   0  0  0  0  0  0  0  0  0  0  0  0
    2.8080    1.1880    0.0000 O   0  0  0  0  0  0  0  0  0  0  0  0
    3.5220   -0.0500    0.0000 C   0  0  0  0  0  0  0  0  0  0  0  0
    2.8080   -0.4620    0.0000 C   0  0  0  0  0  0  0  0  0  0  0  0
    4.2360   -0.4620    0.0000 C   0  0  0  0  0  0  0  0  0  0  0  0
    2.8080   -1.2870    0.0000 C   0  0  0  0  0  0  0  0  0  0  0  0
    4.2360   -1.2870    0.0000 C   0  0  0  0  0  0  0  0  0  0  0  0
    3.5220   -1.7000    0.0000 C   0  0  0  0  0  0  0  0  0  0  0  0
    3.5220    0.7760    0.0000 C   0  0  0  0  0  0  0  0  0  0  0  0
  1  5  1  0  0  0  0
  2 10  1  0  0  0  0
  3 10  2  0  0  0  0
  4  5  2  0  0  0  0
  4  6  1  0  0  0  0
  4 10  1  0  0  0  0
  5  7  1  0  0  0  0
  6  8  2  0  0  0  0
  7  9  2  0  0  0  0
  8  9  1  0  0  0  0
M  END
>  <DATABASE_ID>
DB00936

>  <DATABASE_NAME>
drugbank

>  <SMILES>
Oc1ccccc1C(O)=O

>  <INCHI_IDENTIFIER>
InChI=1S/C7H6O3/c8-6-4-2-1-3-5(6)7(9)10/h1-4,8H,(H,9,10)

>  <INCHI_KEY>
InChIKey=YGSDEFSMJLZEOE-UHFFFAOYSA-N

>  <JCHEM_ACCEPTOR_COUNT>
3

>  <JCHEM_AVERAGE_POLARIZABILITY>
12.814588

>  <JCHEM_BIOAVAILABILITY>
1

>  <JCHEM_DONOR_COUNT>
2

>  <JCHEM_EXACT_MASS>
138.03169

>  <JCHEM_FORMAL_CHARGE>
0

>  <JCHEM_FORMULA>
C7H6O3

>  <JCHEM_GHOSE_FILTER>
0

>  <JCHEM_IUPAC>
2-hydroxybenzoic acid

>  <ALOGPS_LOGP>
1.96

>  <JCHEM_LOGP>
1.9772635

>  <ALOGPS_LOGS>
-1.09

>  <JCHEM_MASS>
138.1207

>  <JCHEM_MDDR_LIKE_RULE>
0

>  <JCHEM_NUMBER_OF_RINGS>
1

>  <JCHEM_PHYSIOLOGICAL_CHARGE>
-1

>  <JCHEM_PKA>
13.228683

>  <JCHEM_PKA_STRONGEST_ACIDIC>
2.7897391

>  <JCHEM_PKA_STRONGEST_BASIC>
-6.2859292

>  <JCHEM_POLAR_SURFACE_AREA>
57.529999

>  <JCHEM_REFRACTIVITY>
35.295101

>  <JCHEM_ROTATABLE_BOND_COUNT>
1

>  <JCHEM_RULE_OF_FIVE>
1

>  <ALOGPS_SOLUBILITY>
1.13e+01 g/l

>  <JCHEM_TRADITIONAL_IUPAC>
salicyclic acid

>  <JCHEM_VEBER_RULE>
0

>  <DRUGBANK_ID>
DB00936

>  <DRUG_GROUPS>
approved

>  <GENERIC_NAME>
Salicylic acid

>  <SYNONYMS>
2-Carboxyphenol; 2-Hydroxybenzoic acid; O-carboxyphenol; O-hydroxybenzoic acid

>  <BRANDS>
Compound W; Dr. Scholl's Callus Removers; Dr. Scholl's Corn Removers; Dr. Scholl's Wart Remover Kit; Duofil Wart Remover; Duoplant; Ionil Plus shampoo; Keralyt; Salonil; Stridex

$$$$
Diethylpropion
 OpenBabel02121510022D

 15 15  0  0  1  0  0  0  0  0999 V2000
    1.6500    0.4120    0.0000 O   0  0  0  0  0  0  0  0  0  0  0  0
    3.0790    1.2380    0.0000 N   0  0  0  0  0  0  0  0  0  0  0  0
    3.0790    0.4120    0.0000 C   0  0  3  0  0  0  0  0  0  0  0  0
    3.7930    1.6500    0.0000 C   0  0  0  0  0  0  0  0  0  0  0  0
    2.3640    1.6500    0.0000 C   0  0  0  0  0  0  0  0  0  0  0  0
    2.3640    0.0000    0.0000 C   0  0  0  0  0  0  0  0  0  0  0  0
    3.7930    0.0000    0.0000 C   0  0  0  0  0  0  0  0  0  0  0  0
    3.7930    2.4750    0.0000 C   0  0  0  0  0  0  0  0  0  0  0  0
    2.3640    2.4750    0.0000 C   0  0  0  0  0  0  0  0  0  0  0  0
    2.3640   -0.8250    0.0000 C   0  0  0  0  0  0  0  0  0  0  0  0
    3.0790   -1.2380    0.0000 C   0  0  0  0  0  0  0  0  0  0  0  0
    1.6500   -1.2380    0.0000 C   0  0  0  0  0  0  0  0  0  0  0  0
    3.0790   -2.0620    0.0000 C   0  0  0  0  0  0  0  0  0  0  0  0
    1.6500   -2.0620    0.0000 C   0  0  0  0  0  0  0  0  0  0  0  0
    2.3640   -2.4750    0.0000 C   0  0  0  0  0  0  0  0  0  0  0  0
  1  6  2  0  0  0  0
  2  3  1  0  0  0  0
  2  4  1  0  0  0  0
  2  5  1  0  0  0  0
  3  6  1  0  0  0  0
  3  7  1  0  0  0  0
  4  8  1  0  0  0  0
  5  9  1  0  0  0  0
  6 10  1  0  0  0  0
 10 11  2  0  0  0  0
 10 12  1  0  0  0  0
 11 13  1  0  0  0  0
 12 14  2  0  0  0  0
 13 15  2  0  0  0  0
 14 15  1  0  0  0  0
M  END
>  <DATABASE_ID>
DB00937

>  <DATABASE_NAME>
drugbank

>  <SMILES>
O=C(C(N(CC)CC)C)c1ccccc1

>  <INCHI_IDENTIFIER>
InChI=1S/C13H19NO/c1-4-14(5-2)11(3)13(15)12-9-7-6-8-10-12/h6-11H,4-5H2,1-3H3

>  <INCHI_KEY>
InChIKey=XXEPPPIWZFICOJ-UHFFFAOYSA-N

>  <JCHEM_ACCEPTOR_COUNT>
2

>  <JCHEM_AVERAGE_POLARIZABILITY>
24.124411

>  <JCHEM_BIOAVAILABILITY>
1

>  <JCHEM_DONOR_COUNT>
0

>  <JCHEM_EXACT_MASS>
205.14667

>  <JCHEM_FORMAL_CHARGE>
0

>  <JCHEM_FORMULA>
C13H19NO

>  <JCHEM_GHOSE_FILTER>
1

>  <JCHEM_IUPAC>
2-(diethylamino)-1-phenylpropan-1-one

>  <ALOGPS_LOGP>
2.8

>  <JCHEM_LOGP>
2.704772

>  <ALOGPS_LOGS>
-2.23

>  <JCHEM_MASS>
205.2961

>  <JCHEM_MDDR_LIKE_RULE>
0

>  <JCHEM_NUMBER_OF_RINGS>
1

>  <JCHEM_PHYSIOLOGICAL_CHARGE>
1

>  <JCHEM_PKA_STRONGEST_ACIDIC>
17.427208

>  <JCHEM_PKA_STRONGEST_BASIC>
7.4416761

>  <JCHEM_POLAR_SURFACE_AREA>
20.309999

>  <JCHEM_REFRACTIVITY>
63.880901

>  <JCHEM_ROTATABLE_BOND_COUNT>
5

>  <JCHEM_RULE_OF_FIVE>
1

>  <ALOGPS_SOLUBILITY>
1.22e+00 g/l

>  <JCHEM_TRADITIONAL_IUPAC>
diethylpropion

>  <JCHEM_VEBER_RULE>
1

>  <DRUGBANK_ID>
DB00937

>  <DRUG_GROUPS>
approved; illicit

>  <GENERIC_NAME>
Diethylpropion

>  <SYNONYMS>
(±)-diethylpropion; 1-phenyl-2-diethylamino-1-propanone; alpha-Benzoyltriethylamine; alpha-Diethylaminopropiophenone; Amfepramone; Amfepramonum; Anfepramona; Diethylcathinone

>  <BRANDS>
Anorex; Dobesin; Frekentine; Linea; Moderatan; Neobes; Nobesine; Prefamone; Regenon; Tenuate; Tepanil; Tylinal

>  <SALTS>
Diethylpropion Hydrochloride

$$$$
Meclofenamic acid
 OpenBabel02121510022D

 19 20  0  0  0  0  0  0  0  0999 V2000
    1.6500   -0.9530    0.0000 Cl  0  0  0  0  0  0  0  0  0  0  0  0
    4.5080   -0.9530    0.0000 Cl  0  0  0  0  0  0  0  0  0  0  0  0
    3.0790    2.3470    0.0000 O   0  0  0  0  0  0  0  0  0  0  0  0
    2.3640    1.1100    0.0000 O   0  0  0  0  0  0  0  0  0  0  0  0
    3.0790   -0.1280    0.0000 N   0  0  0  0  0  0  0  0  0  0  0  0
    3.0790   -0.9530    0.0000 C   0  0  0  0  0  0  0  0  0  0  0  0
    3.7940    0.2850    0.0000 C   0  0  0  0  0  0  0  0  0  0  0  0
    2.3640   -2.1900    0.0000 C   0  0  0  0  0  0  0  0  0  0  0  0
    2.3640   -1.3650    0.0000 C   0  0  0  0  0  0  0  0  0  0  0  0
    3.7940    1.1100    0.0000 C   0  0  0  0  0  0  0  0  0  0  0  0
    3.7940   -1.3650    0.0000 C   0  0  0  0  0  0  0  0  0  0  0  0
    3.0790   -2.6030    0.0000 C   0  0  0  0  0  0  0  0  0  0  0  0
    4.5080   -0.1280    0.0000 C   0  0  0  0  0  0  0  0  0  0  0  0
    3.7940   -2.1900    0.0000 C   0  0  0  0  0  0  0  0  0  0  0  0
    4.5080    1.5220    0.0000 C   0  0  0  0  0  0  0  0  0  0  0  0
    1.6500   -2.6030    0.0000 C   0  0  0  0  0  0  0  0  0  0  0  0
    5.2220    0.2850    0.0000 C   0  0  0  0  0  0  0  0  0  0  0  0
    5.2220    1.1100    0.0000 C   0  0  0  0  0  0  0  0  0  0  0  0
    3.0790    1.5220    0.0000 C   0  0  0  0  0  0  0  0  0  0  0  0
  1  9  1  0  0  0  0
  2 11  1  0  0  0  0
  3 19  1  0  0  0  0
  4 19  2  0  0  0  0
  5  6  1  0  0  0  0
  5  7  1  0  0  0  0
  6  9  2  0  0  0  0
  6 11  1  0  0  0  0
  7 10  2  0  0  0  0
  7 13  1  0  0  0  0
  8  9  1  0  0  0  0
  8 12  2  0  0  0  0
  8 16  1  0  0  0  0
 10 15  1  0  0  0  0
 10 19  1  0  0  0  0
 11 14  2  0  0  0  0
 12 14  1  0  0  0  0
 13 17  2  0  0  0  0
 15 18  2  0  0  0  0
 17 18  1  0  0  0  0
M  END
>  <DATABASE_ID>
DB00939

>  <DATABASE_NAME>
drugbank

>  <SMILES>
Clc1c(Nc2ccccc2C(O)=O)c(Cl)ccc1C

>  <INCHI_IDENTIFIER>
InChI=1S/C14H11Cl2NO2/c1-8-6-7-10(15)13(12(8)16)17-11-5-3-2-4-9(11)14(18)19/h2-7,17H,1H3,(H,18,19)

>  <INCHI_KEY>
InChIKey=SBDNJUWAMKYJOX-UHFFFAOYSA-N

>  <JCHEM_ACCEPTOR_COUNT>
3

>  <JCHEM_AVERAGE_POLARIZABILITY>
28.439585

>  <JCHEM_BIOAVAILABILITY>
1

>  <JCHEM_DONOR_COUNT>
2

>  <JCHEM_EXACT_MASS>
295.01669

>  <JCHEM_FORMAL_CHARGE>
0

>  <JCHEM_FORMULA>
C14H11Cl2NO2

>  <JCHEM_GHOSE_FILTER>
0

>  <JCHEM_IUPAC>
2-[(2,6-dichloro-3-methylphenyl)amino]benzoic acid

>  <ALOGPS_LOGP>
5.1100001

>  <JCHEM_LOGP>
6.0922651

>  <ALOGPS_LOGS>
-4.9099998

>  <JCHEM_MASS>
296.14899

>  <JCHEM_MDDR_LIKE_RULE>
0

>  <JCHEM_NUMBER_OF_RINGS>
2

>  <JCHEM_PHYSIOLOGICAL_CHARGE>
-1

>  <JCHEM_PKA>
17.052355

>  <JCHEM_PKA_STRONGEST_ACIDIC>
3.7869301

>  <JCHEM_PKA_STRONGEST_BASIC>
-3.6275606

>  <JCHEM_POLAR_SURFACE_AREA>
49.330002

>  <JCHEM_REFRACTIVITY>
76.451202

>  <JCHEM_ROTATABLE_BOND_COUNT>
3

>  <JCHEM_RULE_OF_FIVE>
0

>  <ALOGPS_SOLUBILITY>
3.66e-03 g/l

>  <JCHEM_TRADITIONAL_IUPAC>
meclofenamic acid

>  <JCHEM_VEBER_RULE>
0

>  <DRUGBANK_ID>
DB00939

>  <DRUG_GROUPS>
approved

>  <GENERIC_NAME>
Meclofenamic acid

>  <SYNONYMS>
Acide meclofenamique; Acido meclofenamico; Acidum meclofenamicum; Meclofenamate

>  <BRANDS>
Ethos; Eucome; Meclofenamate Sodium; Meclomen

$$$$
Methantheline
 OpenBabel02121510022D

 25 27  0  0  0  0  0  0  0  0999 V2000
    4.5640   -0.1920    0.0000 O   0  0  0  0  0  0  0  0  0  0  0  0
    3.8500   -3.0800    0.0000 O   0  0  0  0  0  0  0  0  0  0  0  0
    3.1350   -0.1920    0.0000 O   0  0  0  0  0  0  0  0  0  0  0  0
    5.2780    1.8700    0.0000 N   0  3  0  0  0  0  0  0  0  0  0  0
    5.2780    1.0460    0.0000 C   0  0  0  0  0  0  0  0  0  0  0  0
    5.2780    2.6960    0.0000 C   0  0  0  0  0  0  0  0  0  0  0  0
    6.1030    1.8700    0.0000 C   0  0  0  0  0  0  0  0  0  0  0  0
    4.4530    1.8700    0.0000 C   0  0  0  0  0  0  0  0  0  0  0  0
    4.5640    0.6330    0.0000 C   0  0  0  0  0  0  0  0  0  0  0  0
    5.9930    3.1080    0.0000 C   0  0  0  0  0  0  0  0  0  0  0  0
    6.5160    1.1560    0.0000 C   0  0  0  0  0  0  0  0  0  0  0  0
    3.8500   -1.4300    0.0000 C   0  0  0  0  0  0  0  0  0  0  0  0
    3.8500   -0.6040    0.0000 C   0  0  0  0  0  0  0  0  0  0  0  0
    4.5640   -1.8420    0.0000 C   0  0  0  0  0  0  0  0  0  0  0  0
    3.1350   -1.8420    0.0000 C   0  0  0  0  0  0  0  0  0  0  0  0
    4.5640   -2.6670    0.0000 C   0  0  0  0  0  0  0  0  0  0  0  0
    3.1350   -2.6670    0.0000 C   0  0  0  0  0  0  0  0  0  0  0  0
    5.3020   -1.4010    0.0000 C   0  0  0  0  0  0  0  0  0  0  0  0
    2.3980   -1.4010    0.0000 C   0  0  0  0  0  0  0  0  0  0  0  0
    5.3020   -3.1080    0.0000 C   0  0  0  0  0  0  0  0  0  0  0  0
    2.3980   -3.1080    0.0000 C   0  0  0  0  0  0  0  0  0  0  0  0
    6.0490   -1.8250    0.0000 C   0  0  0  0  0  0  0  0  0  0  0  0
    1.6500   -1.8250    0.0000 C   0  0  0  0  0  0  0  0  0  0  0  0
    6.0490   -2.6840    0.0000 C   0  0  0  0  0  0  0  0  0  0  0  0
    1.6500   -2.6840    0.0000 C   0  0  0  0  0  0  0  0  0  0  0  0
  1  9  1  0  0  0  0
  1 13  1  0  0  0  0
  2 16  1  0  0  0  0
  2 17  1  0  0  0  0
  3 13  2  0  0  0  0
  4  5  1  0  0  0  0
  4  6  1  0  0  0  0
  4  7  1  0  0  0  0
  4  8  1  0  0  0  0
  5  9  1  0  0  0  0
  6 10  1  0  0  0  0
  7 11  1  0  0  0  0
 12 13  1  0  0  0  0
 12 14  1  0  0  0  0
 12 15  1  0  0  0  0
 14 16  2  0  0  0  0
 14 18  1  0  0  0  0
 15 17  2  0  0  0  0
 15 19  1  0  0  0  0
 16 20  1  0  0  0  0
 17 21  1  0  0  0  0
 18 22  2  0  0  0  0
 19 23  2  0  0  0  0
 20 24  2  0  0  0  0
 21 25  2  0  0  0  0
 22 24  1  0  0  0  0
 23 25  1  0  0  0  0
M  CHG  1   4   1
M  END
>  <DATABASE_ID>
DB00940

>  <DATABASE_NAME>
drugbank

>  <SMILES>
O1c2c(cccc2)C(c2c1cccc2)C(OCC[N+](CC)(CC)C)=O

>  <INCHI_IDENTIFIER>
InChI=1S/C21H26NO3/c1-4-22(3,5-2)14-15-24-21(23)20-16-10-6-8-12-18(16)25-19-13-9-7-11-17(19)20/h6-13,20H,4-5,14-15H2,1-3H3/q+1

>  <INCHI_KEY>
InChIKey=GZHFODJQISUKAY-UHFFFAOYSA-N

>  <JCHEM_ACCEPTOR_COUNT>
1

>  <JCHEM_AVERAGE_POLARIZABILITY>
37.441284

>  <JCHEM_BIOAVAILABILITY>
1

>  <JCHEM_DONOR_COUNT>
0

>  <JCHEM_EXACT_MASS>
340.19125

>  <JCHEM_FORMAL_CHARGE>
1

>  <JCHEM_FORMULA>
C21H26NO3

>  <JCHEM_GHOSE_FILTER>
0

>  <JCHEM_IUPAC>
diethyl(methyl){2-[(9H-xanthen-9-yl)carbonyloxy]ethyl}azanium

>  <ALOGPS_LOGP>
0.5

>  <JCHEM_LOGP>
-0.46935642

>  <ALOGPS_LOGS>
-6.4499998

>  <JCHEM_MASS>
340.436

>  <JCHEM_MDDR_LIKE_RULE>
1

>  <JCHEM_NUMBER_OF_RINGS>
3

>  <JCHEM_PHYSIOLOGICAL_CHARGE>
1

>  <JCHEM_PKA_STRONGEST_ACIDIC>
18.098024

>  <JCHEM_PKA_STRONGEST_BASIC>
-7.1859775

>  <JCHEM_POLAR_SURFACE_AREA>
35.529999

>  <JCHEM_REFRACTIVITY>
110.4169

>  <JCHEM_ROTATABLE_BOND_COUNT>
7

>  <JCHEM_RULE_OF_FIVE>
1

>  <ALOGPS_SOLUBILITY>
1.32e-04 g/l

>  <JCHEM_TRADITIONAL_IUPAC>
methantheline

>  <JCHEM_VEBER_RULE>
1

>  <DRUGBANK_ID>
DB00940

>  <DRUG_GROUPS>
approved

>  <GENERIC_NAME>
Methantheline

>  <SYNONYMS>
Methanthelinium; Methanthelinum

>  <BRANDS>
Banthine; Vagantin

>  <SALTS>
Methantheline Bromide

$$$$
Zalcitabine
 OpenBabel02121510022D

 15 16  0  0  1  0  0  0  0  0999 V2000
    3.7460   -0.7110    0.0000 O   0  0  0  0  0  0  0  0  0  0  0  0
    3.6410   -2.9160    0.0000 O   0  0  0  0  0  0  0  0  0  0  0  0
    1.6500    0.5990    0.0000 O   0  0  0  0  0  0  0  0  0  0  0  0
    3.0790    0.5990    0.0000 N   0  0  0  0  0  0  0  0  0  0  0  0
    2.3640    1.8370    0.0000 N   0  0  0  0  0  0  0  0  0  0  0  0
    3.0790    3.0740    0.0000 N   0  0  0  0  0  0  0  0  0  0  0  0
    3.0790   -0.2260    0.0000 C   0  0  1  0  0  0  0  0  0  0  0  0
    2.4120   -0.7110    0.0000 C   0  0  0  0  0  0  0  0  0  0  0  0
    2.6660   -1.4950    0.0000 C   0  0  0  0  0  0  0  0  0  0  0  0
    3.4920   -1.4950    0.0000 C   0  0  1  0  0  0  0  0  0  0  0  0
    3.9760   -2.1630    0.0000 C   0  0  0  0  0  0  0  0  0  0  0  0
    3.7940    1.0120    0.0000 C   0  0  0  0  0  0  0  0  0  0  0  0
    2.3640    1.0120    0.0000 C   0  0  0  0  0  0  0  0  0  0  0  0
    3.7940    1.8370    0.0000 C   0  0  0  0  0  0  0  0  0  0  0  0
    3.0790    2.2490    0.0000 C   0  0  0  0  0  0  0  0  0  0  0  0
  1  7  1  0  0  0  0
  1 10  1  0  0  0  0
  2 11  1  0  0  0  0
  3 13  2  0  0  0  0
  4 12  1  0  0  0  0
  4 13  1  0  0  0  0
  5 13  1  0  0  0  0
  5 15  2  0  0  0  0
  6 15  1  0  0  0  0
  7  4  1  6  0  0  0
  7  8  1  0  0  0  0
  8  9  1  0  0  0  0
  9 10  1  0  0  0  0
 10 11  1  6  0  0  0
 12 14  2  0  0  0  0
 14 15  1  0  0  0  0
M  END
>  <DATABASE_ID>
DB00943

>  <DATABASE_NAME>
drugbank

>  <SMILES>
O1[C@@H](CC[C@@H]1N1C=CC(=NC1=O)N)CO

>  <INCHI_IDENTIFIER>
InChI=1S/C9H13N3O3/c10-7-3-4-12(9(14)11-7)8-2-1-6(5-13)15-8/h3-4,6,8,13H,1-2,5H2,(H2,10,11,14)/t6-,8+/m0/s1

>  <INCHI_KEY>
InChIKey=WREGKURFCTUGRC-POYBYMJQSA-N

>  <JCHEM_ACCEPTOR_COUNT>
5

>  <JCHEM_AVERAGE_POLARIZABILITY>
20.858875

>  <JCHEM_BIOAVAILABILITY>
1

>  <JCHEM_DONOR_COUNT>
2

>  <JCHEM_EXACT_MASS>
211.09569

>  <JCHEM_FORMAL_CHARGE>
0

>  <JCHEM_FORMULA>
C9H13N3O3

>  <JCHEM_GHOSE_FILTER>
0

>  <JCHEM_IUPAC>
4-amino-1-[(2R,5S)-5-(hydroxymethyl)oxolan-2-yl]-1,2-dihydropyrimidin-2-one

>  <ALOGPS_LOGP>
-1.29

>  <JCHEM_LOGP>
-1.1882265

>  <ALOGPS_LOGS>
-1.48

>  <JCHEM_MASS>
211.2178

>  <JCHEM_MDDR_LIKE_RULE>
0

>  <JCHEM_NUMBER_OF_RINGS>
2

>  <JCHEM_PHYSIOLOGICAL_CHARGE>
0

>  <JCHEM_PKA_STRONGEST_ACIDIC>
14.673302

>  <JCHEM_PKA_STRONGEST_BASIC>
0.17605318

>  <JCHEM_POLAR_SURFACE_AREA>
88.150002

>  <JCHEM_REFRACTIVITY>
52.2402

>  <JCHEM_ROTATABLE_BOND_COUNT>
2

>  <JCHEM_RULE_OF_FIVE>
1

>  <ALOGPS_SOLUBILITY>
7.05e+00 g/l

>  <JCHEM_TRADITIONAL_IUPAC>
zalcitabine

>  <JCHEM_VEBER_RULE>
0

>  <DRUGBANK_ID>
DB00943

>  <DRUG_GROUPS>
approved

>  <GENERIC_NAME>
Zalcitabine

>  <SYNONYMS>
DDC; DDCYD; Dideoxycytidine

$$$$
Acetylsalicylic acid
 OpenBabel02121510022D

 13 13  0  0  0  0  0  0  0  0999 V2000
    3.0790   -0.0500    0.0000 O   0  0  0  0  0  0  0  0  0  0  0  0
    5.2220    1.1880    0.0000 O   0  0  0  0  0  0  0  0  0  0  0  0
    3.7940    1.1880    0.0000 O   0  0  0  0  0  0  0  0  0  0  0  0
    2.3640   -1.2870    0.0000 O   0  0  0  0  0  0  0  0  0  0  0  0
    3.7940   -0.4620    0.0000 C   0  0  0  0  0  0  0  0  0  0  0  0
    4.5080   -0.0500    0.0000 C   0  0  0  0  0  0  0  0  0  0  0  0
    3.7940   -1.2870    0.0000 C   0  0  0  0  0  0  0  0  0  0  0  0
    5.2220   -0.4620    0.0000 C   0  0  0  0  0  0  0  0  0  0  0  0
    4.5080   -1.7000    0.0000 C   0  0  0  0  0  0  0  0  0  0  0  0
    5.2220   -1.2870    0.0000 C   0  0  0  0  0  0  0  0  0  0  0  0
    4.5080    0.7760    0.0000 C   0  0  0  0  0  0  0  0  0  0  0  0
    2.3640   -0.4620    0.0000 C   0  0  0  0  0  0  0  0  0  0  0  0
    1.6500   -0.0500    0.0000 C   0  0  0  0  0  0  0  0  0  0  0  0
  1  5  1  0  0  0  0
  1 12  1  0  0  0  0
  2 11  1  0  0  0  0
  3 11  2  0  0  0  0
  4 12  2  0  0  0  0
  5  6  2  0  0  0  0
  5  7  1  0  0  0  0
  6  8  1  0  0  0  0
  6 11  1  0  0  0  0
  7  9  2  0  0  0  0
  8 10  2  0  0  0  0
  9 10  1  0  0  0  0
 12 13  1  0  0  0  0
M  END
>  <DATABASE_ID>
DB00945

>  <DATABASE_NAME>
drugbank

>  <SMILES>
O(C(=O)C)c1ccccc1C(O)=O

>  <INCHI_IDENTIFIER>
InChI=1S/C9H8O4/c1-6(10)13-8-5-3-2-4-7(8)9(11)12/h2-5H,1H3,(H,11,12)

>  <INCHI_KEY>
InChIKey=BSYNRYMUTXBXSQ-UHFFFAOYSA-N

>  <JCHEM_ACCEPTOR_COUNT>
3

>  <JCHEM_AVERAGE_POLARIZABILITY>
17.095251

>  <JCHEM_BIOAVAILABILITY>
1

>  <JCHEM_DONOR_COUNT>
1

>  <JCHEM_EXACT_MASS>
180.04225

>  <JCHEM_FORMAL_CHARGE>
0

>  <JCHEM_FORMULA>
C9H8O4

>  <JCHEM_GHOSE_FILTER>
1

>  <JCHEM_IUPAC>
2-(acetyloxy)benzoic acid

>  <ALOGPS_LOGP>
1.4299999

>  <JCHEM_LOGP>
1.2380897

>  <ALOGPS_LOGS>
-2.0899999

>  <JCHEM_MASS>
180.15739

>  <JCHEM_MDDR_LIKE_RULE>
0

>  <JCHEM_NUMBER_OF_RINGS>
1

>  <JCHEM_PHYSIOLOGICAL_CHARGE>
-1

>  <JCHEM_PKA_STRONGEST_ACIDIC>
3.4147992

>  <JCHEM_PKA_STRONGEST_BASIC>
-7.1447988

>  <JCHEM_POLAR_SURFACE_AREA>
63.599998

>  <JCHEM_REFRACTIVITY>
44.446602

>  <JCHEM_ROTATABLE_BOND_COUNT>
3

>  <JCHEM_RULE_OF_FIVE>
1

>  <ALOGPS_SOLUBILITY>
1.46e+00 g/l

>  <JCHEM_TRADITIONAL_IUPAC>
aspirin

>  <JCHEM_VEBER_RULE>
0

>  <DRUGBANK_ID>
DB00945

>  <DRUG_GROUPS>
approved

>  <GENERIC_NAME>
Acetylsalicylic acid

>  <SYNONYMS>
2-Acetoxybenzenecarboxylic acid; 2-Acetoxybenzoic acid; Acetylsalicylate; Acide acétylsalicylique; ácido acetilsalicílico; Acidum acetylsalicylicum; ASA; Aspirin; Azetylsalizylsäure; o-acetoxybenzoic acid; O-acetylsalicylic acid; o-carboxyphenyl acetate; Polopiryna

>  <BRANDS>
Acenterine; Acetophen; Adiro; Aspergum; Aspirin; Aspro; Bayer Aspirin; Easprin; Ecotrin; Entrophen; Nu-seals; Rhodine; Solprin; Solprin acid; St. Joseph Aspirin for Adults; Tasprin

$$$$
Felbamate
 OpenBabel02121510022D

 17 17  0  0  0  0  0  0  0  0999 V2000
    3.0790    1.1100    0.0000 O   0  0  0  0  0  0  0  0  0  0  0  0
    4.5080    1.1100    0.0000 O   0  0  0  0  0  0  0  0  0  0  0  0
    1.6500    1.1100    0.0000 O   0  0  0  0  0  0  0  0  0  0  0  0
    5.9370    1.1100    0.0000 O   0  0  0  0  0  0  0  0  0  0  0  0
    2.3640    2.3470    0.0000 N   0  0  0  0  0  0  0  0  0  0  0  0
    5.2220    2.3470    0.0000 N   0  0  0  0  0  0  0  0  0  0  0  0
    3.7940   -0.1280    0.0000 C   0  0  0  0  0  0  0  0  0  0  0  0
    3.7940   -0.9530    0.0000 C   0  0  0  0  0  0  0  0  0  0  0  0
    3.0790    0.2850    0.0000 C   0  0  0  0  0  0  0  0  0  0  0  0
    4.5080    0.2850    0.0000 C   0  0  0  0  0  0  0  0  0  0  0  0
    4.5080   -1.3650    0.0000 C   0  0  0  0  0  0  0  0  0  0  0  0
    3.0790   -1.3650    0.0000 C   0  0  0  0  0  0  0  0  0  0  0  0
    4.5080   -2.1900    0.0000 C   0  0  0  0  0  0  0  0  0  0  0  0
    3.0790   -2.1900    0.0000 C   0  0  0  0  0  0  0  0  0  0  0  0
    3.7940   -2.6030    0.0000 C   0  0  0  0  0  0  0  0  0  0  0  0
    2.3640    1.5220    0.0000 C   0  0  0  0  0  0  0  0  0  0  0  0
    5.2220    1.5220    0.0000 C   0  0  0  0  0  0  0  0  0  0  0  0
  1  9  1  0  0  0  0
  1 16  1  0  0  0  0
  2 10  1  0  0  0  0
  2 17  1  0  0  0  0
  3 16  2  0  0  0  0
  4 17  2  0  0  0  0
  5 16  1  0  0  0  0
  6 17  1  0  0  0  0
  7  8  1  0  0  0  0
  7  9  1  0  0  0  0
  7 10  1  0  0  0  0
  8 11  2  0  0  0  0
  8 12  1  0  0  0  0
 11 13  1  0  0  0  0
 12 14  2  0  0  0  0
 13 15  2  0  0  0  0
 14 15  1  0  0  0  0
M  END
>  <DATABASE_ID>
DB00949

>  <DATABASE_NAME>
drugbank

>  <SMILES>
O(CC(COC(=O)N)c1ccccc1)C(=O)N

>  <INCHI_IDENTIFIER>
InChI=1S/C11H14N2O4/c12-10(14)16-6-9(7-17-11(13)15)8-4-2-1-3-5-8/h1-5,9H,6-7H2,(H2,12,14)(H2,13,15)

>  <INCHI_KEY>
InChIKey=WKGXYQFOCVYPAC-UHFFFAOYSA-N

>  <JCHEM_ACCEPTOR_COUNT>
2

>  <JCHEM_AVERAGE_POLARIZABILITY>
23.517405

>  <JCHEM_BIOAVAILABILITY>
1

>  <JCHEM_DONOR_COUNT>
2

>  <JCHEM_EXACT_MASS>
238.09535

>  <JCHEM_FORMAL_CHARGE>
0

>  <JCHEM_FORMULA>
C11H14N2O4

>  <JCHEM_GHOSE_FILTER>
1

>  <JCHEM_IUPAC>
3-(carbamoyloxy)-2-phenylpropyl carbamate

>  <ALOGPS_LOGP>
0.56

>  <JCHEM_LOGP>
0.67956793

>  <ALOGPS_LOGS>
-2.51

>  <JCHEM_MASS>
238.2399

>  <JCHEM_MDDR_LIKE_RULE>
0

>  <JCHEM_NUMBER_OF_RINGS>
1

>  <JCHEM_PHYSIOLOGICAL_CHARGE>
0

>  <JCHEM_PKA>
15.460661

>  <JCHEM_PKA_STRONGEST_ACIDIC>
14.982562

>  <JCHEM_POLAR_SURFACE_AREA>
104.64

>  <JCHEM_REFRACTIVITY>
59.5868

>  <JCHEM_ROTATABLE_BOND_COUNT>
7

>  <JCHEM_RULE_OF_FIVE>
1

>  <ALOGPS_SOLUBILITY>
7.42e-01 g/l

>  <JCHEM_TRADITIONAL_IUPAC>
felbamate

>  <JCHEM_VEBER_RULE>
0

>  <DRUGBANK_ID>
DB00949

>  <DRUG_GROUPS>
approved

>  <GENERIC_NAME>
Felbamate

$$$$
Fexofenadine
 OpenBabel02121510022D

 37 40  0  0  1  0  0  0  0  0999 V2000
    3.4120    3.7620    0.0000 O   0  0  0  0  0  0  0  0  0  0  0  0
    2.0930   -0.7760    0.0000 O   0  0  0  0  0  0  0  0  0  0  0  0
    2.0930   -5.7260    0.0000 O   0  0  0  0  0  0  0  0  0  0  0  0
    3.5220   -5.7260    0.0000 O   0  0  0  0  0  0  0  0  0  0  0  0
    4.2360    1.2870    0.0000 N   0  0  0  0  0  0  0  0  0  0  0  0
    4.2360    2.9370    0.0000 C   0  0  3  0  0  0  0  0  0  0  0  0
    3.5220    2.5250    0.0000 C   0  0  0  0  0  0  0  0  0  0  0  0
    4.9510    2.5250    0.0000 C   0  0  0  0  0  0  0  0  0  0  0  0
    4.2360    3.7620    0.0000 C   0  0  0  0  0  0  0  0  0  0  0  0
    3.5220    1.7000    0.0000 C   0  0  0  0  0  0  0  0  0  0  0  0
    4.9510    1.7000    0.0000 C   0  0  0  0  0  0  0  0  0  0  0  0
    4.2360    0.4620    0.0000 C   0  0  0  0  0  0  0  0  0  0  0  0
    4.2360    4.5870    0.0000 C   0  0  0  0  0  0  0  0  0  0  0  0
    5.0620    3.7620    0.0000 C   0  0  0  0  0  0  0  0  0  0  0  0
    3.5220    0.0500    0.0000 C   0  0  0  0  0  0  0  0  0  0  0  0
    3.5220   -0.7760    0.0000 C   0  0  0  0  0  0  0  0  0  0  0  0
    3.5220    5.0000    0.0000 C   0  0  0  0  0  0  0  0  0  0  0  0
    5.4740    4.4760    0.0000 C   0  0  0  0  0  0  0  0  0  0  0  0
    4.9510    5.0000    0.0000 C   0  0  0  0  0  0  0  0  0  0  0  0
    5.4740    3.0480    0.0000 C   0  0  0  0  0  0  0  0  0  0  0  0
    2.8080   -1.1880    0.0000 C   0  0  3  0  0  0  0  0  0  0  0  0
    3.5220    5.8250    0.0000 C   0  0  0  0  0  0  0  0  0  0  0  0
    6.2990    4.4760    0.0000 C   0  0  0  0  0  0  0  0  0  0  0  0
    4.9510    5.8250    0.0000 C   0  0  0  0  0  0  0  0  0  0  0  0
    6.2990    3.0480    0.0000 C   0  0  0  0  0  0  0  0  0  0  0  0
    2.8080   -2.0130    0.0000 C   0  0  0  0  0  0  0  0  0  0  0  0
    4.2360    6.2370    0.0000 C   0  0  0  0  0  0  0  0  0  0  0  0
    6.7120    3.7620    0.0000 C   0  0  0  0  0  0  0  0  0  0  0  0
    3.5220   -2.4260    0.0000 C   0  0  0  0  0  0  0  0  0  0  0  0
    2.0930   -2.4260    0.0000 C   0  0  0  0  0  0  0  0  0  0  0  0
    2.8080   -4.4880    0.0000 C   0  0  0  0  0  0  0  0  0  0  0  0
    2.8080   -3.6630    0.0000 C   0  0  0  0  0  0  0  0  0  0  0  0
    3.5220   -3.2510    0.0000 C   0  0  0  0  0  0  0  0  0  0  0  0
    2.0930   -3.2510    0.0000 C   0  0  0  0  0  0  0  0  0  0  0  0
    1.9820   -4.4880    0.0000 C   0  0  0  0  0  0  0  0  0  0  0  0
    3.6330   -4.4880    0.0000 C   0  0  0  0  0  0  0  0  0  0  0  0
    2.8080   -5.3130    0.0000 C   0  0  0  0  0  0  0  0  0  0  0  0
  1  9  1  0  0  0  0
  2 21  1  0  0  0  0
  3 37  1  0  0  0  0
  4 37  2  0  0  0  0
  5 10  1  0  0  0  0
  5 11  1  0  0  0  0
  5 12  1  0  0  0  0
  6  7  1  0  0  0  0
  6  8  1  0  0  0  0
  6  9  1  0  0  0  0
  7 10  1  0  0  0  0
  8 11  1  0  0  0  0
  9 13  1  0  0  0  0
  9 14  1  0  0  0  0
 12 15  1  0  0  0  0
 13 17  2  0  0  0  0
 13 19  1  0  0  0  0
 14 18  2  0  0  0  0
 14 20  1  0  0  0  0
 15 16  1  0  0  0  0
 16 21  1  0  0  0  0
 17 22  1  0  0  0  0
 18 23  1  0  0  0  0
 19 24  2  0  0  0  0
 20 25  2  0  0  0  0
 21 26  1  0  0  0  0
 22 27  2  0  0  0  0
 23 28  2  0  0  0  0
 24 27  1  0  0  0  0
 25 28  1  0  0  0  0
 26 29  2  0  0  0  0
 26 30  1  0  0  0  0
 29 33  1  0  0  0  0
 30 34  2  0  0  0  0
 31 32  1  0  0  0  0
 31 35  1  0  0  0  0
 31 36  1  0  0  0  0
 31 37  1  0  0  0  0
 32 33  2  0  0  0  0
 32 34  1  0  0  0  0
M  END
>  <DATABASE_ID>
DB00950

>  <DATABASE_NAME>
drugbank

>  <SMILES>
OC(C1CCN(CC1)CCCC(O)c1ccc(cc1)C(C(O)=O)(C)C)(c1ccccc1)c1ccccc1

>  <INCHI_IDENTIFIER>
InChI=1S/C32H39NO4/c1-31(2,30(35)36)25-17-15-24(16-18-25)29(34)14-9-21-33-22-19-28(20-23-33)32(37,26-10-5-3-6-11-26)27-12-7-4-8-13-27/h3-8,10-13,15-18,28-29,34,37H,9,14,19-23H2,1-2H3,(H,35,36)

>  <INCHI_KEY>
InChIKey=RWTNPBWLLIMQHL-UHFFFAOYSA-N

>  <JCHEM_ACCEPTOR_COUNT>
5

>  <JCHEM_AVERAGE_POLARIZABILITY>
57.417122

>  <JCHEM_BIOAVAILABILITY>
1

>  <JCHEM_DONOR_COUNT>
3

>  <JCHEM_EXACT_MASS>
501.2879

>  <JCHEM_FORMAL_CHARGE>
0

>  <JCHEM_FORMULA>
C32H39NO4

>  <JCHEM_GHOSE_FILTER>
0

>  <JCHEM_IUPAC>
2-(4-{1-hydroxy-4-[4-(hydroxydiphenylmethyl)piperidin-1-yl]butyl}phenyl)-2-methylpropanoic acid

>  <ALOGPS_LOGP>
5.02

>  <JCHEM_LOGP>
2.9385009

>  <ALOGPS_LOGS>
-5.2800002

>  <JCHEM_MASS>
501.6564

>  <JCHEM_MDDR_LIKE_RULE>
1

>  <JCHEM_NUMBER_OF_RINGS>
4

>  <JCHEM_PHYSIOLOGICAL_CHARGE>
0

>  <JCHEM_PKA>
13.195642

>  <JCHEM_PKA_STRONGEST_ACIDIC>
4.0404382

>  <JCHEM_PKA_STRONGEST_BASIC>
9.0105019

>  <JCHEM_POLAR_SURFACE_AREA>
81

>  <JCHEM_REFRACTIVITY>
147.9846

>  <JCHEM_ROTATABLE_BOND_COUNT>
10

>  <JCHEM_RULE_OF_FIVE>
0

>  <ALOGPS_SOLUBILITY>
2.66e-03 g/l

>  <JCHEM_TRADITIONAL_IUPAC>
fexofenadine

>  <JCHEM_VEBER_RULE>
0

>  <DRUGBANK_ID>
DB00950

>  <DRUG_GROUPS>
approved

>  <GENERIC_NAME>
Fexofenadine

>  <SYNONYMS>
Carboxyterfenadine; Terfenadine acid metabolite; Terfenadine carboxylate; Terfenadine-COOH

>  <BRANDS>
Allegra; Fastofen; Fexidine; Telfast; Vifas

$$$$
Isoniazid
 OpenBabel02121510022D

 10 10  0  0  0  0  0  0  0  0999 V2000
    1.6500    0.9030    0.0000 O   0  0  0  0  0  0  0  0  0  0  0  0
    3.0790    0.9030    0.0000 N   0  0  0  0  0  0  0  0  0  0  0  0
    2.3640   -1.9840    0.0000 N   0  0  0  0  0  0  0  0  0  0  0  0
    3.0790    1.7280    0.0000 N   0  0  0  0  0  0  0  0  0  0  0  0
    2.3640   -0.3340    0.0000 C   0  0  0  0  0  0  0  0  0  0  0  0
    3.0790   -0.7470    0.0000 C   0  0  0  0  0  0  0  0  0  0  0  0
    1.6500   -0.7470    0.0000 C   0  0  0  0  0  0  0  0  0  0  0  0
    2.3640    0.4910    0.0000 C   0  0  0  0  0  0  0  0  0  0  0  0
    3.0790   -1.5720    0.0000 C   0  0  0  0  0  0  0  0  0  0  0  0
    1.6500   -1.5720    0.0000 C   0  0  0  0  0  0  0  0  0  0  0  0
  1  8  2  0  0  0  0
  2  4  1  0  0  0  0
  2  8  1  0  0  0  0
  3  9  2  0  0  0  0
  3 10  1  0  0  0  0
  5  6  2  0  0  0  0
  5  7  1  0  0  0  0
  5  8  1  0  0  0  0
  6  9  1  0  0  0  0
  7 10  2  0  0  0  0
M  END
>  <DATABASE_ID>
DB00951

>  <DATABASE_NAME>
drugbank

>  <SMILES>
O=C(NN)c1ccncc1

>  <INCHI_IDENTIFIER>
InChI=1S/C6H7N3O/c7-9-6(10)5-1-3-8-4-2-5/h1-4H,7H2,(H,9,10)

>  <INCHI_KEY>
InChIKey=QRXWMOHMRWLFEY-UHFFFAOYSA-N

>  <JCHEM_ACCEPTOR_COUNT>
3

>  <JCHEM_AVERAGE_POLARIZABILITY>
13.211069

>  <JCHEM_BIOAVAILABILITY>
1

>  <JCHEM_DONOR_COUNT>
2

>  <JCHEM_EXACT_MASS>
137.05891

>  <JCHEM_FORMAL_CHARGE>
0

>  <JCHEM_FORMULA>
C6H7N3O

>  <JCHEM_GHOSE_FILTER>
0

>  <JCHEM_IUPAC>
pyridine-4-carbohydrazide

>  <ALOGPS_LOGP>
-0.70999998

>  <JCHEM_LOGP>
-0.69026202

>  <ALOGPS_LOGS>
-0.58999997

>  <JCHEM_MASS>
137.1393

>  <JCHEM_MDDR_LIKE_RULE>
0

>  <JCHEM_NUMBER_OF_RINGS>
1

>  <JCHEM_PHYSIOLOGICAL_CHARGE>
0

>  <JCHEM_PKA_STRONGEST_ACIDIC>
13.605502

>  <JCHEM_PKA_STRONGEST_BASIC>
3.3508081

>  <JCHEM_POLAR_SURFACE_AREA>
68.010002

>  <JCHEM_REFRACTIVITY>
37.4636

>  <JCHEM_ROTATABLE_BOND_COUNT>
1

>  <JCHEM_RULE_OF_FIVE>
1

>  <ALOGPS_SOLUBILITY>
3.49e+01 g/l

>  <JCHEM_TRADITIONAL_IUPAC>
isoniazid

>  <JCHEM_VEBER_RULE>
0

>  <DRUGBANK_ID>
DB00951

>  <DRUG_GROUPS>
approved

>  <GENERIC_NAME>
Isoniazid

>  <SYNONYMS>
4-pyridinecarbohydrazide; INH; Isonicotinic acid hydrazide; Isonicotinic hydrazide; Isonicotinohydrazide; Isonicotinylhydrazine

>  <BRANDS>
Nicozid; Nidrazid; Nydrazid; Rimicid; Rimifon; Servizid; Tibinide

$$$$
Naratriptan
 OpenBabel02121510022D

 23 25  0  0  0  0  0  0  0  0999 V2000
    3.0790   -0.5000    0.0000 S   0  0  0  0  0  0  0  0  0  0  0  0
    3.4920    0.2140    0.0000 O   0  0  0  0  0  0  0  0  0  0  0  0
    2.6660   -1.2150    0.0000 O   0  0  0  0  0  0  0  0  0  0  0  0
    8.2010    1.6910    0.0000 N   0  0  0  0  0  0  0  0  0  0  0  0
    7.4320   -1.9890    0.0000 N   0  0  0  0  0  0  0  0  0  0  0  0
    2.3640   -0.0880    0.0000 N   0  0  0  0  0  0  0  0  0  0  0  0
    7.6880    0.1230    0.0000 C   0  0  0  0  0  0  0  0  0  0  0  0
    8.4960    0.2930    0.0000 C   0  0  0  0  0  0  0  0  0  0  0  0
    7.1370    0.7370    0.0000 C   0  0  0  0  0  0  0  0  0  0  0  0
    8.7520    1.0770    0.0000 C   0  0  0  0  0  0  0  0  0  0  0  0
    7.3940    1.5210    0.0000 C   0  0  0  0  0  0  0  0  0  0  0  0
    7.4320   -0.6610    0.0000 C   0  0  0  0  0  0  0  0  0  0  0  0
    6.6520   -0.9130    0.0000 C   0  0  0  0  0  0  0  0  0  0  0  0
    7.9140   -1.3250    0.0000 C   0  0  0  0  0  0  0  0  0  0  0  0
    6.6520   -1.7380    0.0000 C   0  0  0  0  0  0  0  0  0  0  0  0
    8.4570    2.4750    0.0000 C   0  0  0  0  0  0  0  0  0  0  0  0
    5.9370   -0.5000    0.0000 C   0  0  0  0  0  0  0  0  0  0  0  0
    5.2220   -0.9130    0.0000 C   0  0  0  0  0  0  0  0  0  0  0  0
    5.9370   -2.1500    0.0000 C   0  0  0  0  0  0  0  0  0  0  0  0
    4.5080   -0.5000    0.0000 C   0  0  0  0  0  0  0  0  0  0  0  0
    5.2220   -1.7380    0.0000 C   0  0  0  0  0  0  0  0  0  0  0  0
    3.7940   -0.9130    0.0000 C   0  0  0  0  0  0  0  0  0  0  0  0
    1.6500   -0.5000    0.0000 C   0  0  0  0  0  0  0  0  0  0  0  0
  1  2  2  0  0  0  0
  1  3  2  0  0  0  0
  1  6  1  0  0  0  0
  1 22  1  0  0  0  0
  4 10  1  0  0  0  0
  4 11  1  0  0  0  0
  4 16  1  0  0  0  0
  5 14  1  0  0  0  0
  5 15  1  0  0  0  0
  6 23  1  0  0  0  0
  7  8  1  0  0  0  0
  7  9  1  0  0  0  0
  7 12  1  0  0  0  0
  8 10  1  0  0  0  0
  9 11  1  0  0  0  0
 12 13  1  0  0  0  0
 12 14  2  0  0  0  0
 13 15  1  0  0  0  0
 13 17  2  0  0  0  0
 15 19  2  0  0  0  0
 17 18  1  0  0  0  0
 18 20  1  0  0  0  0
 18 21  2  0  0  0  0
 19 21  1  0  0  0  0
 20 22  1  0  0  0  0
M  END
>  <DATABASE_ID>
DB00952

>  <DATABASE_NAME>
drugbank

>  <SMILES>
S(=O)(=O)(NC)CCc1cc2c([nH]cc2C2CCN(CC2)C)cc1

>  <INCHI_IDENTIFIER>
InChI=1S/C17H25N3O2S/c1-18-23(21,22)10-7-13-3-4-17-15(11-13)16(12-19-17)14-5-8-20(2)9-6-14/h3-4,11-12,14,18-19H,5-10H2,1-2H3

>  <INCHI_KEY>
InChIKey=AMKVXSZCKVJAGH-UHFFFAOYSA-N

>  <JCHEM_ACCEPTOR_COUNT>
3

>  <JCHEM_AVERAGE_POLARIZABILITY>
38.002361

>  <JCHEM_BIOAVAILABILITY>
1

>  <JCHEM_DONOR_COUNT>
2

>  <JCHEM_EXACT_MASS>
335.16675

>  <JCHEM_FORMAL_CHARGE>
0

>  <JCHEM_FORMULA>
C17H25N3O2S

>  <JCHEM_GHOSE_FILTER>
1

>  <JCHEM_IUPAC>
N-methyl-2-[3-(1-methylpiperidin-4-yl)-1H-indol-5-yl]ethane-1-sulfonamide

>  <ALOGPS_LOGP>
2.1600001

>  <JCHEM_LOGP>
1.440625

>  <ALOGPS_LOGS>
-3.47

>  <JCHEM_MASS>
335.46399

>  <JCHEM_MDDR_LIKE_RULE>
0

>  <JCHEM_NUMBER_OF_RINGS>
3

>  <JCHEM_PHYSIOLOGICAL_CHARGE>
1

>  <JCHEM_PKA>
17.113644

>  <JCHEM_PKA_STRONGEST_ACIDIC>
11.549356

>  <JCHEM_PKA_STRONGEST_BASIC>
9.1828623

>  <JCHEM_POLAR_SURFACE_AREA>
65.199997

>  <JCHEM_REFRACTIVITY>
94.257202

>  <JCHEM_ROTATABLE_BOND_COUNT>
4

>  <JCHEM_RULE_OF_FIVE>
1

>  <ALOGPS_SOLUBILITY>
1.14e-01 g/l

>  <JCHEM_TRADITIONAL_IUPAC>
naratriptan

>  <JCHEM_VEBER_RULE>
0

>  <DRUGBANK_ID>
DB00952

>  <DRUG_GROUPS>
approved; investigational

>  <GENERIC_NAME>
Naratriptan

$$$$
Rizatriptan
 OpenBabel02121510022D

 20 22  0  0  0  0  0  0  0  0999 V2000
    6.5940   -1.5970    0.0000 N   0  0  0  0  0  0  0  0  0  0  0  0
    7.9140    1.4690    0.0000 N   0  0  0  0  0  0  0  0  0  0  0  0
    2.9560   -0.5210    0.0000 N   0  0  0  0  0  0  0  0  0  0  0  0
    2.8700   -1.3410    0.0000 N   0  0  0  0  0  0  0  0  0  0  0  0
    1.6500   -0.7980    0.0000 N   0  0  0  0  0  0  0  0  0  0  0  0
    6.5940   -0.2690    0.0000 C   0  0  0  0  0  0  0  0  0  0  0  0
    5.8140   -0.5210    0.0000 C   0  0  0  0  0  0  0  0  0  0  0  0
    6.8510    0.5150    0.0000 C   0  0  0  0  0  0  0  0  0  0  0  0
    5.8140   -1.3460    0.0000 C   0  0  0  0  0  0  0  0  0  0  0  0
    7.6580    0.6850    0.0000 C   0  0  0  0  0  0  0  0  0  0  0  0
    5.0990   -0.1080    0.0000 C   0  0  0  0  0  0  0  0  0  0  0  0
    7.0760   -0.9330    0.0000 C   0  0  0  0  0  0  0  0  0  0  0  0
    4.3850   -0.5210    0.0000 C   0  0  0  0  0  0  0  0  0  0  0  0
    5.0990   -1.7580    0.0000 C   0  0  0  0  0  0  0  0  0  0  0  0
    4.3850   -1.3460    0.0000 C   0  0  0  0  0  0  0  0  0  0  0  0
    3.6700   -0.1080    0.0000 C   0  0  0  0  0  0  0  0  0  0  0  0
    7.3630    2.0830    0.0000 C   0  0  0  0  0  0  0  0  0  0  0  0
    8.7220    1.6390    0.0000 C   0  0  0  0  0  0  0  0  0  0  0  0
    2.2020   -0.1850    0.0000 C   0  0  0  0  0  0  0  0  0  0  0  0
    2.0620   -1.5130    0.0000 C   0  0  0  0  0  0  0  0  0  0  0  0
  1  9  1  0  0  0  0
  1 12  1  0  0  0  0
  2 10  1  0  0  0  0
  2 17  1  0  0  0  0
  2 18  1  0  0  0  0
  3  4  1  0  0  0  0
  3 16  1  0  0  0  0
  3 19  1  0  0  0  0
  4 20  2  0  0  0  0
  5 19  2  0  0  0  0
  5 20  1  0  0  0  0
  6  7  1  0  0  0  0
  6  8  1  0  0  0  0
  6 12  2  0  0  0  0
  7  9  1  0  0  0  0
  7 11  2  0  0  0  0
  8 10  1  0  0  0  0
  9 14  2  0  0  0  0
 11 13  1  0  0  0  0
 13 15  2  0  0  0  0
 13 16  1  0  0  0  0
 14 15  1  0  0  0  0
M  END
>  <DATABASE_ID>
DB00953

>  <DATABASE_NAME>
drugbank

>  <SMILES>
[nH]1cc(c2cc(ccc12)Cn1ncnc1)CCN(C)C

>  <INCHI_IDENTIFIER>
InChI=1S/C15H19N5/c1-19(2)6-5-13-8-17-15-4-3-12(7-14(13)15)9-20-11-16-10-18-20/h3-4,7-8,10-11,17H,5-6,9H2,1-2H3

>  <INCHI_KEY>
InChIKey=ULFRLSNUDGIQQP-UHFFFAOYSA-N

>  <JCHEM_ACCEPTOR_COUNT>
3

>  <JCHEM_AVERAGE_POLARIZABILITY>
29.999849

>  <JCHEM_BIOAVAILABILITY>
1

>  <JCHEM_DONOR_COUNT>
1

>  <JCHEM_EXACT_MASS>
269.16403

>  <JCHEM_FORMAL_CHARGE>
0

>  <JCHEM_FORMULA>
C15H19N5

>  <JCHEM_GHOSE_FILTER>
1

>  <JCHEM_IUPAC>
dimethyl({2-[5-(1H-1,2,4-triazol-1-ylmethyl)-1H-indol-3-yl]ethyl})amine

>  <ALOGPS_LOGP>
1.67

>  <JCHEM_LOGP>
1.7678794

>  <ALOGPS_LOGS>
-2.9000001

>  <JCHEM_MASS>
269.34491

>  <JCHEM_MDDR_LIKE_RULE>
0

>  <JCHEM_NUMBER_OF_RINGS>
3

>  <JCHEM_PHYSIOLOGICAL_CHARGE>
1

>  <JCHEM_PKA_STRONGEST_ACIDIC>
17.23522

>  <JCHEM_PKA_STRONGEST_BASIC>
9.5572977

>  <JCHEM_POLAR_SURFACE_AREA>
49.740002

>  <JCHEM_REFRACTIVITY>
93.132301

>  <JCHEM_ROTATABLE_BOND_COUNT>
5

>  <JCHEM_RULE_OF_FIVE>
1

>  <ALOGPS_SOLUBILITY>
3.38e-01 g/l

>  <JCHEM_TRADITIONAL_IUPAC>
rizatriptan

>  <JCHEM_VEBER_RULE>
0

>  <DRUGBANK_ID>
DB00953

>  <DRUG_GROUPS>
approved

>  <GENERIC_NAME>
Rizatriptan

>  <SYNONYMS>
Risatriptan

$$$$
Dirithromycin
 OpenBabel02121510022D

 58 61  0  0  1  0  0  0  0  0999 V2000
    9.2510   -1.4040    0.0000 O   0  0  0  0  0  0  0  0  0  0  0  0
    4.2200   -2.6490    0.0000 O   0  0  0  0  0  0  0  0  0  0  0  0
    5.1270   -3.2790    0.0000 O   0  0  0  0  0  0  0  0  0  0  0  0
    9.0690    0.5710    0.0000 O   0  0  0  0  0  0  0  0  0  0  0  0
    7.1280   -0.1310    0.0000 O   0  0  0  0  0  0  0  0  0  0  0  0
    4.9290   -0.5110    0.0000 O   0  0  0  0  0  0  0  0  0  0  0  0
    3.5360   -1.3100    0.0000 O   0  0  0  0  0  0  0  0  0  0  0  0
    5.7130    0.7170    0.0000 O   0  0  0  0  0  0  0  0  0  0  0  0
   10.6820   -2.2610    0.0000 O   0  0  0  0  0  0  0  0  0  0  0  0
    2.7060   -3.3970    0.0000 O   0  0  0  0  0  0  0  0  0  0  0  0
    4.0290    2.3460    0.0000 O   0  0  0  0  0  0  0  0  0  0  0  0
    6.8190    1.0870    0.0000 O   0  0  0  0  0  0  0  0  0  0  0  0
    5.0330    2.7910    0.0000 O   0  0  0  0  0  0  0  0  0  0  0  0
   12.8700   -2.7170    0.0000 O   0  0  0  0  0  0  0  0  0  0  0  0
    8.5160   -2.6290    0.0000 N   0  0  0  0  0  0  0  0  0  0  0  0
    1.3730   -2.5120    0.0000 N   0  0  0  0  0  0  0  0  0  0  0  0
    7.8090   -2.2050    0.0000 C   0  0  2  0  0  0  0  0  0  0  0  0
    7.8220   -1.3800    0.0000 C   0  0  2  0  0  0  0  0  0  0  0  0
    7.0880   -2.6060    0.0000 C   0  0  1  0  0  0  0  0  0  0  0  0
    8.5440   -0.9800    0.0000 C   0  0  1  0  0  0  0  0  0  0  0  0
    5.6590   -2.5820    0.0000 C   0  0  2  0  0  0  0  0  0  0  0  0
    6.3800   -2.1820    0.0000 C   0  0  0  0  0  0  0  0  0  0  0  0
    8.5570   -0.1550    0.0000 C   0  0  1  0  0  0  0  0  0  0  0  0
    4.9510   -2.1580    0.0000 C   0  0  1  0  0  0  0  0  0  0  0  0
    4.9650   -1.3330    0.0000 C   0  0  1  0  0  0  0  0  0  0  0  0
    9.2380   -2.2290    0.0000 C   0  0  1  0  0  0  0  0  0  0  0  0
    7.8500    0.2700    0.0000 C   0  0  1  0  0  0  0  0  0  0  0  0
    5.6860   -0.9320    0.0000 C   0  0  1  0  0  0  0  0  0  0  0  0
    7.0320   -1.1550    0.0000 C   0  0  0  0  0  0  0  0  0  0  0  0
    7.2710   -3.4650    0.0000 C   0  0  0  0  0  0  0  0  0  0  0  0
    6.0100   -3.3980    0.0000 C   0  0  0  0  0  0  0  0  0  0  0  0
    5.7000   -0.1080    0.0000 C   0  0  1  0  0  0  0  0  0  0  0  0
    9.4440   -0.2000    0.0000 C   0  0  0  0  0  0  0  0  0  0  0  0
    4.2180   -0.9140    0.0000 C   0  0  0  0  0  0  0  0  0  0  0  0
    9.9550   -2.7170    0.0000 C   0  0  0  0  0  0  0  0  0  0  0  0
    7.9460    1.1620    0.0000 C   0  0  0  0  0  0  0  0  0  0  0  0
    3.5230   -2.1340    0.0000 C   0  0  2  0  0  0  0  0  0  0  0  0
    2.8020   -2.5350    0.0000 C   0  0  1  0  0  0  0  0  0  0  0  0
    6.4210    0.2930    0.0000 C   0  0  0  0  0  0  0  0  0  0  0  0
    4.9920    0.3170    0.0000 C   0  0  2  0  0  0  0  0  0  0  0  0
    2.0940   -2.1110    0.0000 C   0  0  2  0  0  0  0  0  0  0  0  0
    4.2980    1.5660    0.0000 C   0  0  2  0  0  0  0  0  0  0  0  0
    4.2850    0.7410    0.0000 C   0  0  0  0  0  0  0  0  0  0  0  0
    6.2590   -0.5560    0.0000 C   0  0  0  0  0  0  0  0  0  0  0  0
    2.1080   -1.2860    0.0000 C   0  0  0  0  0  0  0  0  0  0  0  0
    2.8290   -0.8850    0.0000 C   0  0  1  0  0  0  0  0  0  0  0  0
    5.0190    1.9660    0.0000 C   0  0  2  0  0  0  0  0  0  0  0  0
    8.5380    1.7810    0.0000 C   0  0  0  0  0  0  0  0  0  0  0  0
    5.7270    1.5420    0.0000 C   0  0  2  0  0  0  0  0  0  0  0  0
    3.4830    1.4360    0.0000 C   0  0  0  0  0  0  0  0  0  0  0  0
    2.8420   -0.0600    0.0000 C   0  0  0  0  0  0  0  0  0  0  0  0
    6.4480    1.9430    0.0000 C   0  0  0  0  0  0  0  0  0  0  0  0
   11.4100   -2.7170    0.0000 C   0  0  0  0  0  0  0  0  0  0  0  0
    0.6650   -2.0870    0.0000 C   0  0  0  0  0  0  0  0  0  0  0  0
    1.3590   -3.3360    0.0000 C   0  0  0  0  0  0  0  0  0  0  0  0
    4.5690    2.9690    0.0000 C   0  0  0  0  0  0  0  0  0  0  0  0
   12.1360   -2.2580    0.0000 C   0  0  0  0  0  0  0  0  0  0  0  0
   13.6100   -2.2890    0.0000 C   0  0  0  0  0  0  0  0  0  0  0  0
  1 26  1  0  0  0  0
  5 27  1  0  0  0  0
  5 39  1  0  0  0  0
  7 37  1  0  0  0  0
  7 46  1  0  0  0  0
  8 40  1  0  0  0  0
  8 49  1  0  0  0  0
  9 35  1  0  0  0  0
  9 53  1  0  0  0  0
 11 56  1  0  0  0  0
 12 39  2  0  0  0  0
 14 57  1  0  0  0  0
 14 58  1  0  0  0  0
 15 26  1  0  0  0  0
 16 54  1  0  0  0  0
 16 55  1  0  0  0  0
 17 15  1  1  0  0  0
 17 18  1  0  0  0  0
 17 19  1  0  0  0  0
 18 20  1  0  0  0  0
 18 29  1  1  0  0  0
 19 22  1  0  0  0  0
 19 30  1  6  0  0  0
 20  1  1  1  0  0  0
 20 23  1  0  0  0  0
 21  3  1  1  0  0  0
 21 22  1  0  0  0  0
 21 24  1  0  0  0  0
 21 31  1  0  0  0  0
 23  4  1  1  0  0  0
 23 27  1  0  0  0  0
 23 33  1  0  0  0  0
 24  2  1  6  0  0  0
 24 25  1  0  0  0  0
 25 28  1  0  0  0  0
 25 34  1  6  0  0  0
 26 35  1  6  0  0  0
 27 36  1  6  0  0  0
 28  6  1  1  0  0  0
 28 32  1  0  0  0  0
 32 39  1  0  0  0  0
 32 44  1  6  0  0  0
 36 48  1  0  0  0  0
 37  2  1  1  0  0  0
 37 38  1  0  0  0  0
 38 10  1  6  0  0  0
 38 41  1  0  0  0  0
 40  6  1  1  0  0  0
 40 43  1  0  0  0  0
 41 16  1  1  0  0  0
 41 45  1  0  0  0  0
 42 11  1  1  0  0  0
 42 43  1  0  0  0  0
 42 47  1  0  0  0  0
 42 50  1  0  0  0  0
 45 46  1  0  0  0  0
 46 51  1  1  0  0  0
 47 13  1  1  0  0  0
 47 49  1  0  0  0  0
 49 52  1  6  0  0  0
 53 57  1  0  0  0  0
M  END
>  <DATABASE_ID>
DB00954

>  <DATABASE_NAME>
drugbank

>  <SMILES>
O1[C@H](CC)[C@@](O)([C@H]2O[C@@H](N[C@@H]([C@@H](C[C@](O)(C)[C@H](O[C@@H]3O[C@@H](C[C@H](N(C)C)[C@H]3O)C)[C@H](C)[C@@H](O[C@@H]3O[C@@H](C)[C@H](O)[C@](OC)(C3)C)[C@@H](C)C1=O)C)[C@H]2C)COCCOC)C

>  <INCHI_IDENTIFIER>
InChI=1S/C42H78N2O14/c1-15-29-42(10,49)37-24(4)32(43-30(56-37)21-52-17-16-50-13)22(2)19-40(8,48)36(58-39-33(45)28(44(11)12)18-23(3)53-39)25(5)34(26(6)38(47)55-29)57-31-20-41(9,51-14)35(46)27(7)54-31/h22-37,39,43,45-46,48-49H,15-21H2,1-14H3/t22-,23-,24-,25-,26-,27+,28+,29-,30-,31+,32+,33-,34-,35+,36-,37+,39+,40-,41-,42-/m1/s1

>  <INCHI_KEY>
InChIKey=WLOHNSSYAXHWNR-PBIGORBISA-N

>  <JCHEM_ACCEPTOR_COUNT>
15

>  <JCHEM_AVERAGE_POLARIZABILITY>
91.590714

>  <JCHEM_BIOAVAILABILITY>
0

>  <JCHEM_DONOR_COUNT>
5

>  <JCHEM_EXACT_MASS>
834.54529

>  <JCHEM_FORMAL_CHARGE>
0

>  <JCHEM_FORMULA>
C42H78N2O14

>  <JCHEM_GHOSE_FILTER>
0

>  <JCHEM_IUPAC>
(1S,2R,3R,6R,7R,8R,9R,10R,12R,13S,15R,17R)-9-{[(2S,3R,4S,6R)-4-(dimethylamino)-3-hydroxy-6-methyloxan-2-yl]oxy}-3-ethyl-2,10-dihydroxy-7-{[(2R,4R,5S,6S)-5-hydroxy-4-methoxy-4,6-dimethyloxan-2-yl]oxy}-15-[(2-methoxyethoxy)methyl]-2,6,8,10,12,17-hexamethyl-4,16-dioxa-14-azabicyclo[11.3.1]heptadecan-5-one

>  <ALOGPS_LOGP>
2.9000001

>  <JCHEM_LOGP>
2.9477377

>  <ALOGPS_LOGS>
-3.5599999

>  <JCHEM_MASS>
835.07373

>  <JCHEM_MDDR_LIKE_RULE>
1

>  <JCHEM_NUMBER_OF_RINGS>
4

>  <JCHEM_PHYSIOLOGICAL_CHARGE>
2

>  <JCHEM_PKA>
12.965988

>  <JCHEM_PKA_STRONGEST_ACIDIC>
12.485339

>  <JCHEM_PKA_STRONGEST_BASIC>
9.1264515

>  <JCHEM_POLAR_SURFACE_AREA>
196.33

>  <JCHEM_REFRACTIVITY>
212.95351

>  <JCHEM_ROTATABLE_BOND_COUNT>
12

>  <JCHEM_RULE_OF_FIVE>
0

>  <ALOGPS_SOLUBILITY>
2.30e-01 g/l

>  <JCHEM_TRADITIONAL_IUPAC>
(1S,2R,3R,6R,7R,8R,9R,10R,12R,13S,15R,17R)-9-{[(2S,3R,4S,6R)-4-(dimethylamino)-3-hydroxy-6-methyloxan-2-yl]oxy}-3-ethyl-2,10-dihydroxy-7-{[(2R,4R,5S,6S)-5-hydroxy-4-methoxy-4,6-dimethyloxan-2-yl]oxy}-15-[(2-methoxyethoxy)methyl]-2,6,8,10,12,17-hexamethyl-4,16-dioxa-14-azabicyclo[11.3.1]heptadecan-5-one

>  <JCHEM_VEBER_RULE>
0

>  <DRUGBANK_ID>
DB00954

>  <DRUG_GROUPS>
approved

>  <GENERIC_NAME>
Dirithromycin

$$$$
Hydrocodone
 OpenBabel02121510022D

 25 29  0  0  1  0  0  0  0  0999 V2000
    1.9360   -0.3880    0.0000 O   0  0  0  0  0  0  0  0  0  0  0  0
    1.7350   -2.5180    0.0000 O   0  0  0  0  0  0  0  0  0  0  0  0
    1.7350    1.6500    0.0000 O   0  0  0  0  0  0  0  0  0  0  0  0
    5.3440   -1.2590    0.0000 N   0  0  0  0  0  0  0  0  0  0  0  0
    3.2010   -0.8460    0.0000 C   0  0  1  0  0  0  0  0  0  0  0  0
    3.9150   -1.2590    0.0000 C   0  0  2  0  0  0  0  0  0  0  0  0
    4.6300   -0.8460    0.0000 C   0  0  1  0  0  0  0  0  0  0  0  0
    2.4860   -1.2590    0.0000 C   0  0  2  0  0  0  0  0  0  0  0  0
    3.6770   -0.2410    0.0000 C   0  0  0  0  0  0  0  0  0  0  0  0
    3.2010   -0.0210    0.0000 C   0  0  0  0  0  0  0  0  0  0  0  0
    3.9150   -2.0840    0.0000 C   0  0  0  0  0  0  0  0  0  0  0  0
    4.6300   -0.0210    0.0000 C   0  0  0  0  0  0  0  0  0  0  0  0
    4.8510   -0.2410    0.0000 C   0  0  0  0  0  0  0  0  0  0  0  0
    3.9150    0.3910    0.0000 C   0  0  0  0  0  0  0  0  0  0  0  0
    3.2010   -2.4960    0.0000 C   0  0  0  0  0  0  0  0  0  0  0  0
    2.4860   -2.0840    0.0000 C   0  0  0  0  0  0  0  0  0  0  0  0
    2.4860    0.3910    0.0000 C   0  0  0  0  0  0  0  0  0  0  0  0
    5.9350   -1.8940    0.0000 C   0  0  0  0  0  0  0  0  0  0  0  0
    3.9150    1.2160    0.0000 C   0  0  0  0  0  0  0  0  0  0  0  0
    2.4860    1.2160    0.0000 C   0  0  0  0  0  0  0  0  0  0  0  0
    3.2010    1.6290    0.0000 C   0  0  0  0  0  0  0  0  0  0  0  0
    1.7350    2.5180    0.0000 C   0  0  0  0  0  0  0  0  0  0  0  0
    4.3610   -1.7900    0.0000 H   0  0  0  0  0  0  0  0  0  0  0  0
    4.8680   -1.4980    0.0000 H   0  0  0  0  0  0  0  0  0  0  0  0
    1.8200   -1.4520    0.0000 H   0  0  0  0  0  0  0  0  0  0  0  0
  1  8  1  0  0  0  0
  1 17  1  0  0  0  0
  2 16  2  0  0  0  0
  3 20  1  0  0  0  0
  3 22  1  0  0  0  0
  4  7  1  0  0  0  0
  4 13  1  0  0  0  0
  4 18  1  0  0  0  0
  5  6  1  0  0  0  0
  5  8  1  0  0  0  0
  5  9  1  1  0  0  0
  5 10  1  0  0  0  0
  6  7  1  0  0  0  0
  6 11  1  0  0  0  0
  6 23  1  1  0  0  0
  7 12  1  0  0  0  0
  7 24  1  6  0  0  0
  8 16  1  0  0  0  0
  8 25  1  1  0  0  0
  9 13  1  0  0  0  0
 10 14  1  0  0  0  0
 10 17  2  0  0  0  0
 11 15  1  0  0  0  0
 12 14  1  0  0  0  0
 14 19  2  0  0  0  0
 15 16  1  0  0  0  0
 17 20  1  0  0  0  0
 19 21  1  0  0  0  0
 20 21  2  0  0  0  0
M  END
>  <DATABASE_ID>
DB00956

>  <DATABASE_NAME>
drugbank

>  <SMILES>
O1[C@@H]2[C@]34[C@H]([C@H](N(CC3)C)Cc3c4c1c(OC)cc3)CCC2=O

>  <INCHI_IDENTIFIER>
InChI=1S/C18H21NO3/c1-19-8-7-18-11-4-5-13(20)17(18)22-16-14(21-2)6-3-10(15(16)18)9-12(11)19/h3,6,11-12,17H,4-5,7-9H2,1-2H3/t11-,12+,17-,18-/m0/s1

>  <INCHI_KEY>
InChIKey=LLPOLZWFYMWNKH-CMKMFDCUSA-N

>  <JCHEM_ACCEPTOR_COUNT>
4

>  <JCHEM_AVERAGE_POLARIZABILITY>
32.049351

>  <JCHEM_BIOAVAILABILITY>
1

>  <JCHEM_DONOR_COUNT>
0

>  <JCHEM_EXACT_MASS>
299.15213

>  <JCHEM_FORMAL_CHARGE>
0

>  <JCHEM_FORMULA>
C18H21NO3

>  <JCHEM_GHOSE_FILTER>
1

>  <JCHEM_IUPAC>
(1S,5R,13R,17R)-10-methoxy-4-methyl-12-oxa-4-azapentacyclo[9.6.1.0^{1,13}.0^{5,17}.0^{7,18}]octadeca-7(18),8,10-trien-14-one

>  <ALOGPS_LOGP>
2.1300001

>  <JCHEM_LOGP>
1.960304

>  <ALOGPS_LOGS>
-2.5699999

>  <JCHEM_MASS>
299.3642

>  <JCHEM_MDDR_LIKE_RULE>
0

>  <JCHEM_NUMBER_OF_RINGS>
5

>  <JCHEM_PHYSIOLOGICAL_CHARGE>
1

>  <JCHEM_PKA_STRONGEST_ACIDIC>
18.002748

>  <JCHEM_PKA_STRONGEST_BASIC>
8.6055002

>  <JCHEM_POLAR_SURFACE_AREA>
38.77

>  <JCHEM_REFRACTIVITY>
82.744698

>  <JCHEM_ROTATABLE_BOND_COUNT>
1

>  <JCHEM_RULE_OF_FIVE>
1

>  <ALOGPS_SOLUBILITY>
7.97e-01 g/l

>  <JCHEM_TRADITIONAL_IUPAC>
hydrocodone

>  <JCHEM_VEBER_RULE>
1

>  <DRUGBANK_ID>
DB00956

>  <DRUG_GROUPS>
approved; illicit

>  <GENERIC_NAME>
Hydrocodone

>  <SYNONYMS>
Dihydrocodeinone; Hidrocodona; Hydrocodon; Hydrocodonum; Hydrocone; Hydroconum; Idrocodone

>  <BRANDS>
Reprexain; Zohydro

$$$$
Norgestimate
 OpenBabel02121510022D

 31 34  0  0  1  0  0  0  0  0999 V2000
    8.7050    0.8590    0.0000 O   0  0  0  0  0  0  0  0  0  0  0  0
    9.5430   -0.2980    0.0000 O   0  0  0  0  0  0  0  0  0  0  0  0
    2.0940   -1.9790    0.0000 O   0  0  0  0  0  0  0  0  0  0  0  0
    2.8070   -2.3940    0.0000 N   0  0  0  0  0  0  0  0  0  0  0  0
    7.2560    0.1240    0.0000 C   0  0  1  0  0  0  0  0  0  0  0  0
    7.2560   -0.7010    0.0000 C   0  0  2  0  0  0  0  0  0  0  0  0
    6.5420   -1.1140    0.0000 C   0  0  1  0  0  0  0  0  0  0  0  0
    5.8270   -0.7010    0.0000 C   0  0  2  0  0  0  0  0  0  0  0  0
    8.0370    0.3750    0.0000 C   0  0  2  0  0  0  0  0  0  0  0  0
    6.5420    0.5360    0.0000 C   0  0  0  0  0  0  0  0  0  0  0  0
    8.0370   -0.9530    0.0000 C   0  0  0  0  0  0  0  0  0  0  0  0
    5.8270    0.1240    0.0000 C   0  0  0  0  0  0  0  0  0  0  0  0
    8.5180   -0.2890    0.0000 C   0  0  0  0  0  0  0  0  0  0  0  0
    5.0770   -1.1190    0.0000 C   0  0  2  0  0  0  0  0  0  0  0  0
    6.5550   -1.9730    0.0000 C   0  0  0  0  0  0  0  0  0  0  0  0
    7.2560    0.9490    0.0000 C   0  0  0  0  0  0  0  0  0  0  0  0
    5.8140   -2.4080    0.0000 C   0  0  0  0  0  0  0  0  0  0  0  0
    5.0700   -1.9790    0.0000 C   0  0  0  0  0  0  0  0  0  0  0  0
    4.3120   -0.6540    0.0000 C   0  0  0  0  0  0  0  0  0  0  0  0
    7.7830    1.1600    0.0000 C   0  0  0  0  0  0  0  0  0  0  0  0
    6.5420    1.3610    0.0000 C   0  0  0  0  0  0  0  0  0  0  0  0
    3.5300   -1.0900    0.0000 C   0  0  0  0  0  0  0  0  0  0  0  0
    4.2980   -2.4320    0.0000 C   0  0  0  0  0  0  0  0  0  0  0  0
    3.5230   -1.9850    0.0000 C   0  0  0  0  0  0  0  0  0  0  0  0
    9.4580    0.5220    0.0000 C   0  0  0  0  0  0  0  0  0  0  0  0
    7.5300    1.9450    0.0000 C   0  0  0  0  0  0  0  0  0  0  0  0
   10.1270    1.0060    0.0000 C   0  0  0  0  0  0  0  0  0  0  0  0
    7.3260   -1.3580    0.0000 H   0  0  0  0  0  0  0  0  0  0  0  0
    7.1160   -1.4390    0.0000 H   0  0  0  0  0  0  0  0  0  0  0  0
    6.3990   -0.3710    0.0000 H   0  0  0  0  0  0  0  0  0  0  0  0
    5.0890   -0.4600    0.0000 H   0  0  0  0  0  0  0  0  0  0  0  0
  1 25  1  0  0  0  0
  2 25  2  0  0  0  0
  3  4  1  0  0  0  0
  4 24  2  0  0  0  0
  5  6  1  0  0  0  0
  5  9  1  0  0  0  0
  5 10  1  0  0  0  0
  5 16  1  1  0  0  0
  6  7  1  0  0  0  0
  6 11  1  0  0  0  0
  6 28  1  6  0  0  0
  7  8  1  0  0  0  0
  7 15  1  0  0  0  0
  7 29  1  1  0  0  0
  8 12  1  0  0  0  0
  8 14  1  0  0  0  0
  8 30  1  6  0  0  0
  9  1  1  1  0  0  0
  9 13  1  0  0  0  0
  9 20  1  0  0  0  0
 10 12  1  0  0  0  0
 11 13  1  0  0  0  0
 14 18  1  0  0  0  0
 14 19  1  0  0  0  0
 14 31  1  1  0  0  0
 15 17  1  0  0  0  0
 16 21  1  0  0  0  0
 17 18  1  0  0  0  0
 18 23  2  0  0  0  0
 19 22  1  0  0  0  0
 20 26  3  0  0  0  0
 22 24  1  0  0  0  0
 23 24  1  0  0  0  0
 25 27  1  0  0  0  0
M  END
>  <DATABASE_ID>
DB00957

>  <DATABASE_NAME>
drugbank

>  <SMILES>
O(C(=O)C)[C@]1(CC[C@H]2[C@H]3[C@@H]([C@@H]4C(=C/C(=N/O)/CC4)CC3)CC[C@]12CC)C#C

>  <INCHI_IDENTIFIER>
InChI=1S/C23H31NO3/c1-4-22-12-10-19-18-9-7-17(24-26)14-16(18)6-8-20(19)21(22)11-13-23(22,5-2)27-15(3)25/h2,14,18-21,26H,4,6-13H2,1,3H3/b24-17+/t18-,19+,20+,21-,22-,23-/m0/s1

>  <INCHI_KEY>
InChIKey=KIQQMECNKUGGKA-NMYWJIRASA-N

>  <JCHEM_ACCEPTOR_COUNT>
3

>  <JCHEM_AVERAGE_POLARIZABILITY>
42.824062

>  <JCHEM_BIOAVAILABILITY>
1

>  <JCHEM_DONOR_COUNT>
1

>  <JCHEM_EXACT_MASS>
369.23041

>  <JCHEM_FORMAL_CHARGE>
0

>  <JCHEM_FORMULA>
C23H31NO3

>  <JCHEM_GHOSE_FILTER>
1

>  <JCHEM_IUPAC>
(1S,2R,5E,10R,11S,14R,15S)-15-ethyl-14-ethynyl-5-(hydroxyimino)tetracyclo[8.7.0.0^{2,7}.0^{11,15}]heptadec-6-en-14-yl acetate

>  <ALOGPS_LOGP>
3.8

>  <JCHEM_LOGP>
4.112402

>  <ALOGPS_LOGS>
-4.8400002

>  <JCHEM_MASS>
369.4971

>  <JCHEM_MDDR_LIKE_RULE>
0

>  <JCHEM_NUMBER_OF_RINGS>
4

>  <JCHEM_PHYSIOLOGICAL_CHARGE>
0

>  <JCHEM_PKA_STRONGEST_ACIDIC>
11.466128

>  <JCHEM_PKA_STRONGEST_BASIC>
3.114641

>  <JCHEM_POLAR_SURFACE_AREA>
58.889999

>  <JCHEM_REFRACTIVITY>
104.9987

>  <JCHEM_ROTATABLE_BOND_COUNT>
3

>  <JCHEM_RULE_OF_FIVE>
1

>  <ALOGPS_SOLUBILITY>
5.31e-03 g/l

>  <JCHEM_TRADITIONAL_IUPAC>
norgestimate

>  <JCHEM_VEBER_RULE>
0

>  <DRUGBANK_ID>
DB00957

>  <DRUG_GROUPS>
approved

>  <GENERIC_NAME>
Norgestimate

>  <SYNONYMS>
Dexnorgestrel Acetime; Norgestimato; Norgestimatum

$$$$
Methylprednisolone
 OpenBabel02121510022D

 30 33  0  0  1  0  0  0  0  0999 V2000
    6.6260    1.9370    0.0000 O   0  0  0  0  0  0  0  0  0  0  0  0
    3.9560    1.3130    0.0000 O   0  0  0  0  0  0  0  0  0  0  0  0
    7.4630    2.4560    0.0000 O   0  0  0  0  0  0  0  0  0  0  0  0
    8.9700    1.7830    0.0000 O   0  0  0  0  0  0  0  0  0  0  0  0
    1.6500   -1.6180    0.0000 O   0  0  0  0  0  0  0  0  0  0  0  0
    6.0990    0.9010    0.0000 C   0  0  1  0  0  0  0  0  0  0  0  0
    6.0990    0.0760    0.0000 C   0  0  2  0  0  0  0  0  0  0  0  0
    5.3850   -0.3370    0.0000 C   0  0  1  0  0  0  0  0  0  0  0  0
    4.6700    0.0760    0.0000 C   0  0  2  0  0  0  0  0  0  0  0  0
    6.8800    1.1520    0.0000 C   0  0  1  0  0  0  0  0  0  0  0  0
    5.3850    1.3130    0.0000 C   0  0  0  0  0  0  0  0  0  0  0  0
    4.6700    0.9010    0.0000 C   0  0  2  0  0  0  0  0  0  0  0  0
    6.8800   -0.1760    0.0000 C   0  0  0  0  0  0  0  0  0  0  0  0
    3.9200   -0.3420    0.0000 C   0  0  1  0  0  0  0  0  0  0  0  0
    7.3610    0.4880    0.0000 C   0  0  0  0  0  0  0  0  0  0  0  0
    5.3980   -1.1960    0.0000 C   0  0  0  0  0  0  0  0  0  0  0  0
    4.6570   -1.6310    0.0000 C   0  0  1  0  0  0  0  0  0  0  0  0
    6.0990    1.7260    0.0000 C   0  0  0  0  0  0  0  0  0  0  0  0
    3.9130   -1.2020    0.0000 C   0  0  0  0  0  0  0  0  0  0  0  0
    7.5480    1.6360    0.0000 C   0  0  0  0  0  0  0  0  0  0  0  0
    3.9260    0.4820    0.0000 C   0  0  0  0  0  0  0  0  0  0  0  0
    3.1550    0.1230    0.0000 C   0  0  0  0  0  0  0  0  0  0  0  0
    4.6600   -2.4560    0.0000 C   0  0  0  0  0  0  0  0  0  0  0  0
    3.1410   -1.6550    0.0000 C   0  0  0  0  0  0  0  0  0  0  0  0
    8.3010    1.2990    0.0000 C   0  0  0  0  0  0  0  0  0  0  0  0
    2.3730   -0.3130    0.0000 C   0  0  0  0  0  0  0  0  0  0  0  0
    2.3660   -1.2080    0.0000 C   0  0  0  0  0  0  0  0  0  0  0  0
    6.1690   -0.5810    0.0000 H   0  0  0  0  0  0  0  0  0  0  0  0
    5.9590   -0.6620    0.0000 H   0  0  0  0  0  0  0  0  0  0  0  0
    5.2420    0.4060    0.0000 H   0  0  0  0  0  0  0  0  0  0  0  0
  3 20  2  0  0  0  0
  4 25  1  0  0  0  0
  5 27  2  0  0  0  0
  6  7  1  0  0  0  0
  6 10  1  0  0  0  0
  6 11  1  0  0  0  0
  6 18  1  1  0  0  0
  7  8  1  0  0  0  0
  7 13  1  0  0  0  0
  7 28  1  6  0  0  0
  8  9  1  0  0  0  0
  8 16  1  0  0  0  0
  8 29  1  1  0  0  0
  9 12  1  0  0  0  0
  9 14  1  0  0  0  0
  9 30  1  6  0  0  0
 10  1  1  6  0  0  0
 10 15  1  0  0  0  0
 10 20  1  0  0  0  0
 11 12  1  0  0  0  0
 12  2  1  1  0  0  0
 13 15  1  0  0  0  0
 14 19  1  0  0  0  0
 14 21  1  1  0  0  0
 14 22  1  0  0  0  0
 16 17  1  0  0  0  0
 17 19  1  0  0  0  0
 17 23  1  6  0  0  0
 19 24  2  0  0  0  0
 20 25  1  0  0  0  0
 22 26  2  0  0  0  0
 24 27  1  0  0  0  0
 26 27  1  0  0  0  0
M  END
>  <DATABASE_ID>
DB00959

>  <DATABASE_NAME>
drugbank

>  <SMILES>
O=C1C=C2[C@@]([C@@H]3[C@H]([C@@H]4CC[C@](O)(C(=O)CO)[C@]4(C[C@@H]3O)C)C[C@@H]2C)(C=C1)C

>  <INCHI_IDENTIFIER>
InChI=1S/C22H30O5/c1-12-8-14-15-5-7-22(27,18(26)11-23)21(15,3)10-17(25)19(14)20(2)6-4-13(24)9-16(12)20/h4,6,9,12,14-15,17,19,23,25,27H,5,7-8,10-11H2,1-3H3/t12-,14-,15-,17-,19+,20-,21-,22-/m0/s1

>  <INCHI_KEY>
InChIKey=VHRSUDSXCMQTMA-PJHHCJLFSA-N

>  <JCHEM_ACCEPTOR_COUNT>
5

>  <JCHEM_AVERAGE_POLARIZABILITY>
40.840027

>  <JCHEM_BIOAVAILABILITY>
1

>  <JCHEM_DONOR_COUNT>
3

>  <JCHEM_EXACT_MASS>
374.20932

>  <JCHEM_FORMAL_CHARGE>
0

>  <JCHEM_FORMULA>
C22H30O5

>  <JCHEM_GHOSE_FILTER>
1

>  <JCHEM_IUPAC>
(1S,2R,8S,10S,11S,14R,15S,17S)-14,17-dihydroxy-14-(2-hydroxyacetyl)-2,8,15-trimethyltetracyclo[8.7.0.0^{2,7}.0^{11,15}]heptadeca-3,6-dien-5-one

>  <ALOGPS_LOGP>
2.0599999

>  <JCHEM_LOGP>
1.560009

>  <ALOGPS_LOGS>
-3.54

>  <JCHEM_MASS>
374.47061

>  <JCHEM_MDDR_LIKE_RULE>
0

>  <JCHEM_NUMBER_OF_RINGS>
4

>  <JCHEM_PHYSIOLOGICAL_CHARGE>
0

>  <JCHEM_PKA>
13.864333

>  <JCHEM_PKA_STRONGEST_ACIDIC>
12.584675

>  <JCHEM_PKA_STRONGEST_BASIC>
-2.851356

>  <JCHEM_POLAR_SURFACE_AREA>
94.830002

>  <JCHEM_REFRACTIVITY>
103.0419

>  <JCHEM_ROTATABLE_BOND_COUNT>
2

>  <JCHEM_RULE_OF_FIVE>
1

>  <ALOGPS_SOLUBILITY>
1.09e-01 g/l

>  <JCHEM_TRADITIONAL_IUPAC>
methylprednisolone

>  <JCHEM_VEBER_RULE>
0

>  <DRUGBANK_ID>
DB00959

>  <DRUG_GROUPS>
approved

>  <GENERIC_NAME>
Methylprednisolone

>  <SYNONYMS>
(6α,11β)-11,17,21-trihydroxy-6-methylpregna-1,4-diene-3,20-dione; 1-dehydro-6α-methylhydrocortisone; Methylprednisolon; Methylprednisolonum; Metilprednisolona

>  <BRANDS>
A-METHAPRED; Depo-Medrol; Medrate; Medrol; Medrone; Meprolone; Solomet; Solu-Medrol; Urbason

$$$$
Pindolol
 OpenBabel02121510022D

 18 19  0  0  1  0  0  0  0  0999 V2000
    4.5080   -0.4560    0.0000 O   0  0  0  0  0  0  0  0  0  0  0  0
    4.5080    1.1940    0.0000 O   0  0  0  0  0  0  0  0  0  0  0  0
    3.0790    2.0190    0.0000 N   0  0  0  0  0  0  0  0  0  0  0  0
    6.0030   -2.7700    0.0000 N   0  0  0  0  0  0  0  0  0  0  0  0
    3.7940    0.7810    0.0000 C   0  0  3  0  0  0  0  0  0  0  0  0
    3.0790    1.1940    0.0000 C   0  0  0  0  0  0  0  0  0  0  0  0
    2.3640    2.4310    0.0000 C   0  0  0  0  0  0  0  0  0  0  0  0
    3.7940   -0.0440    0.0000 C   0  0  0  0  0  0  0  0  0  0  0  0
    5.2220   -1.6940    0.0000 C   0  0  0  0  0  0  0  0  0  0  0  0
    4.5080   -1.2810    0.0000 C   0  0  0  0  0  0  0  0  0  0  0  0
    2.3640    3.2560    0.0000 C   0  0  0  0  0  0  0  0  0  0  0  0
    1.6500    2.0190    0.0000 C   0  0  0  0  0  0  0  0  0  0  0  0
    5.2220   -2.5190    0.0000 C   0  0  0  0  0  0  0  0  0  0  0  0
    6.0030   -1.4420    0.0000 C   0  0  0  0  0  0  0  0  0  0  0  0
    3.7940   -1.6940    0.0000 C   0  0  0  0  0  0  0  0  0  0  0  0
    4.5080   -2.9310    0.0000 C   0  0  0  0  0  0  0  0  0  0  0  0
    6.4850   -2.1060    0.0000 C   0  0  0  0  0  0  0  0  0  0  0  0
    3.7940   -2.5190    0.0000 C   0  0  0  0  0  0  0  0  0  0  0  0
  1  8  1  0  0  0  0
  1 10  1  0  0  0  0
  2  5  1  0  0  0  0
  3  6  1  0  0  0  0
  3  7  1  0  0  0  0
  4 13  1  0  0  0  0
  4 17  1  0  0  0  0
  5  6  1  0  0  0  0
  5  8  1  0  0  0  0
  7 11  1  0  0  0  0
  7 12  1  0  0  0  0
  9 10  2  0  0  0  0
  9 13  1  0  0  0  0
  9 14  1  0  0  0  0
 10 15  1  0  0  0  0
 13 16  2  0  0  0  0
 14 17  2  0  0  0  0
 15 18  2  0  0  0  0
 16 18  1  0  0  0  0
M  END
>  <DATABASE_ID>
DB00960

>  <DATABASE_NAME>
drugbank

>  <SMILES>
O(CC(O)CNC(C)C)c1c2c([nH]cc2)ccc1

>  <INCHI_IDENTIFIER>
InChI=1S/C14H20N2O2/c1-10(2)16-8-11(17)9-18-14-5-3-4-13-12(14)6-7-15-13/h3-7,10-11,15-17H,8-9H2,1-2H3

>  <INCHI_KEY>
InChIKey=JZQKKSLKJUAGIC-UHFFFAOYSA-N

>  <JCHEM_ACCEPTOR_COUNT>
3

>  <JCHEM_AVERAGE_POLARIZABILITY>
28.267063

>  <JCHEM_BIOAVAILABILITY>
1

>  <JCHEM_DONOR_COUNT>
3

>  <JCHEM_EXACT_MASS>
248.15248

>  <JCHEM_FORMAL_CHARGE>
0

>  <JCHEM_FORMULA>
C14H20N2O2

>  <JCHEM_GHOSE_FILTER>
1

>  <JCHEM_IUPAC>
[2-hydroxy-3-(1H-indol-4-yloxy)propyl](propan-2-yl)amine

>  <ALOGPS_LOGP>
2.1700001

>  <JCHEM_LOGP>
1.6929811

>  <ALOGPS_LOGS>
-2.46

>  <JCHEM_MASS>
248.3208

>  <JCHEM_MDDR_LIKE_RULE>
0

>  <JCHEM_NUMBER_OF_RINGS>
2

>  <JCHEM_PHYSIOLOGICAL_CHARGE>
1

>  <JCHEM_PKA>
16.657562

>  <JCHEM_PKA_STRONGEST_ACIDIC>
14.086726

>  <JCHEM_PKA_STRONGEST_BASIC>
9.6661663

>  <JCHEM_POLAR_SURFACE_AREA>
57.279999

>  <JCHEM_REFRACTIVITY>
71.461998

>  <JCHEM_ROTATABLE_BOND_COUNT>
6

>  <JCHEM_RULE_OF_FIVE>
1

>  <ALOGPS_SOLUBILITY>
8.61e-01 g/l

>  <JCHEM_TRADITIONAL_IUPAC>
pindolol

>  <JCHEM_VEBER_RULE>
0

>  <DRUGBANK_ID>
DB00960

>  <DRUG_GROUPS>
approved

>  <GENERIC_NAME>
Pindolol

>  <BRANDS>
Betapindol; Blockin L; Blocklin L; Calvisken; Decreten; Durapindol; Glauco-Visken; Pectobloc; Pinbetol; Prinodolol; Pynastin; Visken

$$$$
Zaleplon
 OpenBabel02121510022D

 23 25  0  0  0  0  0  0  0  0999 V2000
    3.0790    3.3850    0.0000 O   0  0  0  0  0  0  0  0  0  0  0  0
    3.7940    2.1470    0.0000 N   0  0  0  0  0  0  0  0  0  0  0  0
    3.0790   -0.7400    0.0000 N   0  0  0  0  0  0  0  0  0  0  0  0
    3.8600   -0.4890    0.0000 N   0  0  0  0  0  0  0  0  0  0  0  0
    2.3640   -1.9780    0.0000 N   0  0  0  0  0  0  0  0  0  0  0  0
    4.3720   -3.3850    0.0000 N   0  0  0  0  0  0  0  0  0  0  0  0
    2.3640    0.4970    0.0000 C   0  0  0  0  0  0  0  0  0  0  0  0
    3.0790    1.7350    0.0000 C   0  0  0  0  0  0  0  0  0  0  0  0
    2.3640   -0.3280    0.0000 C   0  0  0  0  0  0  0  0  0  0  0  0
    3.0790    0.9100    0.0000 C   0  0  0  0  0  0  0  0  0  0  0  0
    4.5080    1.7350    0.0000 C   0  0  0  0  0  0  0  0  0  0  0  0
    1.6500    0.9100    0.0000 C   0  0  0  0  0  0  0  0  0  0  0  0
    2.3640    2.1470    0.0000 C   0  0  0  0  0  0  0  0  0  0  0  0
    3.0790   -1.5650    0.0000 C   0  0  0  0  0  0  0  0  0  0  0  0
    1.6500    1.7350    0.0000 C   0  0  0  0  0  0  0  0  0  0  0  0
    1.6500   -0.7400    0.0000 C   0  0  0  0  0  0  0  0  0  0  0  0
    3.7940    2.9720    0.0000 C   0  0  0  0  0  0  0  0  0  0  0  0
    5.2220    2.1470    0.0000 C   0  0  0  0  0  0  0  0  0  0  0  0
    3.8600   -1.8160    0.0000 C   0  0  0  0  0  0  0  0  0  0  0  0
    1.6500   -1.5650    0.0000 C   0  0  0  0  0  0  0  0  0  0  0  0
    4.3410   -1.1530    0.0000 C   0  0  0  0  0  0  0  0  0  0  0  0
    4.5080    3.3850    0.0000 C   0  0  0  0  0  0  0  0  0  0  0  0
    4.1160   -2.6010    0.0000 C   0  0  0  0  0  0  0  0  0  0  0  0
  1 17  2  0  0  0  0
  2  8  1  0  0  0  0
  2 11  1  0  0  0  0
  2 17  1  0  0  0  0
  3  4  1  0  0  0  0
  3  9  1  0  0  0  0
  3 14  1  0  0  0  0
  4 21  2  0  0  0  0
  5 14  1  0  0  0  0
  5 20  2  0  0  0  0
  6 23  3  0  0  0  0
  7  9  1  0  0  0  0
  7 10  2  0  0  0  0
  7 12  1  0  0  0  0
  8 10  1  0  0  0  0
  8 13  2  0  0  0  0
  9 16  2  0  0  0  0
 11 18  1  0  0  0  0
 12 15  2  0  0  0  0
 13 15  1  0  0  0  0
 14 19  2  0  0  0  0
 16 20  1  0  0  0  0
 17 22  1  0  0  0  0
 19 21  1  0  0  0  0
 19 23  1  0  0  0  0
M  END
>  <DATABASE_ID>
DB00962

>  <DATABASE_NAME>
drugbank

>  <SMILES>
O=C(N(CC)c1cc(ccc1)C=1n2ncc(c2N=CC=1)C#N)C

>  <INCHI_IDENTIFIER>
InChI=1S/C17H15N5O/c1-3-21(12(2)23)15-6-4-5-13(9-15)16-7-8-19-17-14(10-18)11-20-22(16)17/h4-9,11H,3H2,1-2H3

>  <INCHI_KEY>
InChIKey=HUNXMJYCHXQEGX-UHFFFAOYSA-N

>  <JCHEM_ACCEPTOR_COUNT>
4

>  <JCHEM_AVERAGE_POLARIZABILITY>
32.093414

>  <JCHEM_BIOAVAILABILITY>
1

>  <JCHEM_DONOR_COUNT>
0

>  <JCHEM_EXACT_MASS>
305.12766

>  <JCHEM_FORMAL_CHARGE>
0

>  <JCHEM_FORMULA>
C17H15N5O

>  <JCHEM_GHOSE_FILTER>
1

>  <JCHEM_IUPAC>
N-(3-{3-cyanopyrazolo[1,5-a]pyrimidin-7-yl}phenyl)-N-ethylacetamide

>  <ALOGPS_LOGP>
2

>  <JCHEM_LOGP>
1.5348797

>  <ALOGPS_LOGS>
-3.8800001

>  <JCHEM_MASS>
305.33389

>  <JCHEM_MDDR_LIKE_RULE>
0

>  <JCHEM_NUMBER_OF_RINGS>
3

>  <JCHEM_PHYSIOLOGICAL_CHARGE>
0

>  <JCHEM_PKA_STRONGEST_BASIC>
0.30215767

>  <JCHEM_POLAR_SURFACE_AREA>
74.290001

>  <JCHEM_REFRACTIVITY>
97.236397

>  <JCHEM_ROTATABLE_BOND_COUNT>
3

>  <JCHEM_RULE_OF_FIVE>
1

>  <ALOGPS_SOLUBILITY>
4.03e-02 g/l

>  <JCHEM_TRADITIONAL_IUPAC>
zaleplon

>  <JCHEM_VEBER_RULE>
0

>  <DRUGBANK_ID>
DB00962

>  <DRUG_GROUPS>
approved; illicit; investigational

>  <GENERIC_NAME>
Zaleplon

$$$$
Telmisartan
 OpenBabel02121510022D

 39 44  0  0  0  0  0  0  0  0999 V2000
   10.5580    2.7900    0.0000 O   0  0  0  0  0  0  0  0  0  0  0  0
    9.4940    1.8360    0.0000 O   0  0  0  0  0  0  0  0  0  0  0  0
    7.1110   -0.8570    0.0000 N   0  0  0  0  0  0  0  0  0  0  0  0
    7.1110   -2.1850    0.0000 N   0  0  0  0  0  0  0  0  0  0  0  0
    3.4380   -1.0300    0.0000 N   0  0  0  0  0  0  0  0  0  0  0  0
    4.1020    0.1200    0.0000 N   0  0  0  0  0  0  0  0  0  0  0  0
    6.3300   -1.1080    0.0000 C   0  0  0  0  0  0  0  0  0  0  0  0
    7.5920   -1.5210    0.0000 C   0  0  0  0  0  0  0  0  0  0  0  0
    6.3300   -1.9330    0.0000 C   0  0  0  0  0  0  0  0  0  0  0  0
    7.3670   -0.0730    0.0000 C   0  0  0  0  0  0  0  0  0  0  0  0
    8.4180   -1.5210    0.0000 C   0  0  0  0  0  0  0  0  0  0  0  0
    4.9010   -1.1080    0.0000 C   0  0  0  0  0  0  0  0  0  0  0  0
    5.6160   -0.6960    0.0000 C   0  0  0  0  0  0  0  0  0  0  0  0
    5.6160   -2.3460    0.0000 C   0  0  0  0  0  0  0  0  0  0  0  0
    4.9010   -1.9330    0.0000 C   0  0  0  0  0  0  0  0  0  0  0  0
    4.1870   -0.6960    0.0000 C   0  0  0  0  0  0  0  0  0  0  0  0
    8.1740    0.0970    0.0000 C   0  0  0  0  0  0  0  0  0  0  0  0
    8.8300   -2.2350    0.0000 C   0  0  0  0  0  0  0  0  0  0  0  0
    5.6160   -3.1710    0.0000 C   0  0  0  0  0  0  0  0  0  0  0  0
    2.8880   -0.4220    0.0000 C   0  0  0  0  0  0  0  0  0  0  0  0
    3.3000    0.2920    0.0000 C   0  0  0  0  0  0  0  0  0  0  0  0
    8.4310    0.8820    0.0000 C   0  0  0  0  0  0  0  0  0  0  0  0
    8.7260   -0.5170    0.0000 C   0  0  0  0  0  0  0  0  0  0  0  0
    9.6550   -2.2350    0.0000 C   0  0  0  0  0  0  0  0  0  0  0  0
    3.2680   -1.8370    0.0000 C   0  0  0  0  0  0  0  0  0  0  0  0
    9.7890    0.4380    0.0000 C   0  0  0  0  0  0  0  0  0  0  0  0
    9.2380    1.0520    0.0000 C   0  0  0  0  0  0  0  0  0  0  0  0
    9.5330   -0.3470    0.0000 C   0  0  0  0  0  0  0  0  0  0  0  0
    2.0620   -0.4220    0.0000 C   0  0  0  0  0  0  0  0  0  0  0  0
    2.8880    1.0070    0.0000 C   0  0  0  0  0  0  0  0  0  0  0  0
   10.5960    0.6080    0.0000 C   0  0  0  0  0  0  0  0  0  0  0  0
    1.6500    0.2920    0.0000 C   0  0  0  0  0  0  0  0  0  0  0  0
    2.0620    1.0070    0.0000 C   0  0  0  0  0  0  0  0  0  0  0  0
   10.8530    1.3920    0.0000 C   0  0  0  0  0  0  0  0  0  0  0  0
   11.1470   -0.0060    0.0000 C   0  0  0  0  0  0  0  0  0  0  0  0
   11.6600    1.5620    0.0000 C   0  0  0  0  0  0  0  0  0  0  0  0
   11.9550    0.1640    0.0000 C   0  0  0  0  0  0  0  0  0  0  0  0
   12.2110    0.9480    0.0000 C   0  0  0  0  0  0  0  0  0  0  0  0
   10.3020    2.0060    0.0000 C   0  0  0  0  0  0  0  0  0  0  0  0
  1 39  1  0  0  0  0
  2 39  2  0  0  0  0
  3  7  1  0  0  0  0
  3  8  1  0  0  0  0
  3 10  1  0  0  0  0
  4  8  2  0  0  0  0
  4  9  1  0  0  0  0
  5 16  1  0  0  0  0
  5 20  1  0  0  0  0
  5 25  1  0  0  0  0
  6 16  2  0  0  0  0
  6 21  1  0  0  0  0
  7  9  1  0  0  0  0
  7 13  2  0  0  0  0
  8 11  1  0  0  0  0
  9 14  2  0  0  0  0
 10 17  1  0  0  0  0
 11 18  1  0  0  0  0
 12 13  1  0  0  0  0
 12 15  2  0  0  0  0
 12 16  1  0  0  0  0
 14 15  1  0  0  0  0
 14 19  1  0  0  0  0
 17 22  2  0  0  0  0
 17 23  1  0  0  0  0
 18 24  1  0  0  0  0
 20 21  2  0  0  0  0
 20 29  1  0  0  0  0
 21 30  1  0  0  0  0
 22 27  1  0  0  0  0
 23 28  2  0  0  0  0
 26 27  2  0  0  0  0
 26 28  1  0  0  0  0
 26 31  1  0  0  0  0
 29 32  2  0  0  0  0
 30 33  2  0  0  0  0
 31 34  2  0  0  0  0
 31 35  1  0  0  0  0
 32 33  1  0  0  0  0
 34 36  1  0  0  0  0
 34 39  1  0  0  0  0
 35 37  2  0  0  0  0
 36 38  2  0  0  0  0
 37 38  1  0  0  0  0
M  END
>  <DATABASE_ID>
DB00966

>  <DATABASE_NAME>
drugbank

>  <SMILES>
OC(=O)c1ccccc1-c1ccc(cc1)Cn1c2c(nc1CCC)c(cc(c2)-c1nc2c(n1C)cccc2)C

>  <INCHI_IDENTIFIER>
InChI=1S/C33H30N4O2/c1-4-9-30-35-31-21(2)18-24(32-34-27-12-7-8-13-28(27)36(32)3)19-29(31)37(30)20-22-14-16-23(17-15-22)25-10-5-6-11-26(25)33(38)39/h5-8,10-19H,4,9,20H2,1-3H3,(H,38,39)

>  <INCHI_KEY>
InChIKey=RMMXLENWKUUMAY-UHFFFAOYSA-N

>  <JCHEM_ACCEPTOR_COUNT>
4

>  <JCHEM_AVERAGE_POLARIZABILITY>
58.614162

>  <JCHEM_BIOAVAILABILITY>
0

>  <JCHEM_DONOR_COUNT>
1

>  <JCHEM_EXACT_MASS>
514.23688

>  <JCHEM_FORMAL_CHARGE>
0

>  <JCHEM_FORMULA>
C33H30N4O2

>  <JCHEM_GHOSE_FILTER>
0

>  <JCHEM_IUPAC>
2-(4-{[4-methyl-6-(1-methyl-1H-1,3-benzodiazol-2-yl)-2-propyl-1H-1,3-benzodiazol-1-yl]methyl}phenyl)benzoic acid

>  <ALOGPS_LOGP>
6.6599998

>  <JCHEM_LOGP>
6.0408521

>  <ALOGPS_LOGS>
-5.1700001

>  <JCHEM_MASS>
514.61688

>  <JCHEM_MDDR_LIKE_RULE>
1

>  <JCHEM_NUMBER_OF_RINGS>
6

>  <JCHEM_PHYSIOLOGICAL_CHARGE>
-1

>  <JCHEM_PKA_STRONGEST_ACIDIC>
3.645957

>  <JCHEM_PKA_STRONGEST_BASIC>
6.1280503

>  <JCHEM_POLAR_SURFACE_AREA>
72.940002

>  <JCHEM_REFRACTIVITY>
164.4888

>  <JCHEM_ROTATABLE_BOND_COUNT>
7

>  <JCHEM_RULE_OF_FIVE>
0

>  <ALOGPS_SOLUBILITY>
3.50e-03 g/l

>  <JCHEM_TRADITIONAL_IUPAC>
telmisartan

>  <JCHEM_VEBER_RULE>
0

>  <DRUGBANK_ID>
DB00966

>  <DRUG_GROUPS>
approved; investigational

>  <GENERIC_NAME>
Telmisartan

>  <BRANDS>
Micardis

$$$$
Desloratadine
 OpenBabel02121510022D

 22 25  0  0  0  0  0  0  0  0999 V2000
    1.6500    1.6840    0.0000 Cl  0  0  0  0  0  0  0  0  0  0  0  0
    4.8160   -1.8850    0.0000 N   0  0  0  0  0  0  0  0  0  0  0  0
    6.1800    0.3530    0.0000 N   0  0  0  0  0  0  0  0  0  0  0  0
    4.8160   -0.2350    0.0000 C   0  0  0  0  0  0  0  0  0  0  0  0
    4.8160    0.5900    0.0000 C   0  0  0  0  0  0  0  0  0  0  0  0
    4.1010   -0.6480    0.0000 C   0  0  0  0  0  0  0  0  0  0  0  0
    5.5300   -0.6480    0.0000 C   0  0  0  0  0  0  0  0  0  0  0  0
    4.1010   -1.4730    0.0000 C   0  0  0  0  0  0  0  0  0  0  0  0
    5.5300   -1.4730    0.0000 C   0  0  0  0  0  0  0  0  0  0  0  0
    4.0730    0.9480    0.0000 C   0  0  0  0  0  0  0  0  0  0  0  0
    5.5590    0.9480    0.0000 C   0  0  0  0  0  0  0  0  0  0  0  0
    4.4030    2.3970    0.0000 C   0  0  0  0  0  0  0  0  0  0  0  0
    3.8890    1.7520    0.0000 C   0  0  0  0  0  0  0  0  0  0  0  0
    5.2280    2.3970    0.0000 C   0  0  0  0  0  0  0  0  0  0  0  0
    5.7430    1.7520    0.0000 C   0  0  0  0  0  0  0  0  0  0  0  0
    3.4520    0.3530    0.0000 C   0  0  0  0  0  0  0  0  0  0  0  0
    3.0720    2.0180    0.0000 C   0  0  0  0  0  0  0  0  0  0  0  0
    6.5600    2.0180    0.0000 C   0  0  0  0  0  0  0  0  0  0  0  0
    2.6290    0.6000    0.0000 C   0  0  0  0  0  0  0  0  0  0  0  0
    2.4370    1.4380    0.0000 C   0  0  0  0  0  0  0  0  0  0  0  0
    7.1940    1.4380    0.0000 C   0  0  0  0  0  0  0  0  0  0  0  0
    7.0030    0.6000    0.0000 C   0  0  0  0  0  0  0  0  0  0  0  0
  1 20  1  0  0  0  0
  2  8  1  0  0  0  0
  2  9  1  0  0  0  0
  3 11  2  0  0  0  0
  3 22  1  0  0  0  0
  4  5  2  0  0  0  0
  4  6  1  0  0  0  0
  4  7  1  0  0  0  0
  5 10  1  0  0  0  0
  5 11  1  0  0  0  0
  6  8  1  0  0  0  0
  7  9  1  0  0  0  0
 10 13  2  0  0  0  0
 10 16  1  0  0  0  0
 11 15  1  0  0  0  0
 12 13  1  0  0  0  0
 12 14  1  0  0  0  0
 13 17  1  0  0  0  0
 14 15  1  0  0  0  0
 15 18  2  0  0  0  0
 16 19  2  0  0  0  0
 17 20  2  0  0  0  0
 18 21  1  0  0  0  0
 19 20  1  0  0  0  0
 21 22  2  0  0  0  0
M  END
>  <DATABASE_ID>
DB00967

>  <DATABASE_NAME>
drugbank

>  <SMILES>
Clc1cc2c(cc1)C(c1ncccc1CC2)=C1CCNCC1

>  <INCHI_IDENTIFIER>
InChI=1S/C19H19ClN2/c20-16-5-6-17-15(12-16)4-3-14-2-1-9-22-19(14)18(17)13-7-10-21-11-8-13/h1-2,5-6,9,12,21H,3-4,7-8,10-11H2

>  <INCHI_KEY>
InChIKey=JAUOIFJMECXRGI-UHFFFAOYSA-N

>  <JCHEM_ACCEPTOR_COUNT>
2

>  <JCHEM_AVERAGE_POLARIZABILITY>
34.35062

>  <JCHEM_BIOAVAILABILITY>
1

>  <JCHEM_DONOR_COUNT>
1

>  <JCHEM_EXACT_MASS>
310.12369

>  <JCHEM_FORMAL_CHARGE>
0

>  <JCHEM_FORMULA>
C19H19ClN2

>  <JCHEM_GHOSE_FILTER>
1

>  <JCHEM_IUPAC>
13-chloro-2-(piperidin-4-ylidene)-4-azatricyclo[9.4.0.0^{3,8}]pentadeca-1(11),3,5,7,12,14-hexaene

>  <ALOGPS_LOGP>
3.48

>  <JCHEM_LOGP>
3.968538

>  <ALOGPS_LOGS>
-4.9000001

>  <JCHEM_MASS>
310.82101

>  <JCHEM_MDDR_LIKE_RULE>
0

>  <JCHEM_NUMBER_OF_RINGS>
4

>  <JCHEM_PHYSIOLOGICAL_CHARGE>
1

>  <JCHEM_PKA_STRONGEST_BASIC>
9.7291222

>  <JCHEM_POLAR_SURFACE_AREA>
24.92

>  <JCHEM_REFRACTIVITY>
101.0388

>  <JCHEM_ROTATABLE_BOND_COUNT>
0

>  <JCHEM_RULE_OF_FIVE>
1

>  <ALOGPS_SOLUBILITY>
3.95e-03 g/l

>  <JCHEM_TRADITIONAL_IUPAC>
desloratadine

>  <JCHEM_VEBER_RULE>
1

>  <DRUGBANK_ID>
DB00967

>  <DRUG_GROUPS>
approved; investigational

>  <GENERIC_NAME>
Desloratadine

>  <SYNONYMS>
Descarboethoxyloratadine

>  <BRANDS>
Aerius; Claramax; Clarinex; NeoClarityn

$$$$
Methyldopa
 OpenBabel02121510022D

 15 15  0  0  1  0  0  0  0  0999 V2000
    9.7850   -4.2590    0.0000 C   0  0  0  0  0  0  0  0  0  0  0  0
    9.7850   -5.0840    0.0000 C   0  0  0  0  0  0  0  0  0  0  0  0
   11.2140   -4.2590    0.0000 C   0  0  0  0  0  0  0  0  0  0  0  0
   11.2140   -5.0840    0.0000 C   0  0  0  0  0  0  0  0  0  0  0  0
   10.4990   -3.8470    0.0000 C   0  0  0  0  0  0  0  0  0  0  0  0
   13.3570   -3.8470    0.0000 C   0  0  0  0  0  0  0  0  0  0  0  0
   13.3570   -3.0220    0.0000 O   0  0  0  0  0  0  0  0  0  0  0  0
   12.6420   -4.2590    0.0000 C   0  0  1  0  0  0  0  0  0  0  0  0
   11.9280   -3.8470    0.0000 C   0  0  0  0  0  0  0  0  0  0  0  0
   14.0710   -4.2590    0.0000 O   0  0  0  0  0  0  0  0  0  0  0  0
    9.0700   -5.4970    0.0000 O   0  0  0  0  0  0  0  0  0  0  0  0
   10.4990   -5.4970    0.0000 C   0  0  0  0  0  0  0  0  0  0  0  0
   10.4990   -6.3220    0.0000 O   0  0  0  0  0  0  0  0  0  0  0  0
   12.2300   -4.9740    0.0000 C   0  0  0  0  0  0  0  0  0  0  0  0
   13.0550   -4.9740    0.0000 N   0  0  0  0  0  0  0  0  0  0  0  0
  1  2  2  0  0  0  0
  1  5  1  0  0  0  0
  2 11  1  0  0  0  0
  2 12  1  0  0  0  0
  3  4  1  0  0  0  0
  3  5  2  0  0  0  0
  3  9  1  0  0  0  0
  4 12  2  0  0  0  0
  6  7  2  0  0  0  0
  6 10  1  0  0  0  0
  8  6  1  6  0  0  0
  8  9  1  0  0  0  0
  8 14  1  0  0  0  0
  8 15  1  0  0  0  0
 12 13  1  0  0  0  0
M  END
>  <DATABASE_ID>
DB00968

>  <DATABASE_NAME>
drugbank

>  <SMILES>
Oc1cc(ccc1O)C[C@](N)(C(O)=O)C

>  <INCHI_IDENTIFIER>
InChI=1/C10H13NO4/c1-10(11,9(14)15)5-6-2-3-7(12)8(13)4-6/h2-4,12-13H,5,11H2,1H3,(H,14,15)/t10-/s2

>  <INCHI_KEY>
InChIKey=CJCSPKMFHVPWAR-UEQNJFAPNA-N

>  <JCHEM_ACCEPTOR_COUNT>
5

>  <JCHEM_AVERAGE_POLARIZABILITY>
20.733589

>  <JCHEM_BIOAVAILABILITY>
1

>  <JCHEM_DONOR_COUNT>
4

>  <JCHEM_EXACT_MASS>
211.08446

>  <JCHEM_FORMAL_CHARGE>
0

>  <JCHEM_FORMULA>
C10H13NO4

>  <JCHEM_GHOSE_FILTER>
0

>  <JCHEM_IUPAC>
(2S)-2-amino-3-(3,4-dihydroxyphenyl)-2-methylpropanoic acid

>  <ALOGPS_LOGP>
-2.02

>  <JCHEM_LOGP>
-1.3594803

>  <ALOGPS_LOGS>
-1.97

>  <JCHEM_MASS>
211.21449

>  <JCHEM_MDDR_LIKE_RULE>
0

>  <JCHEM_NUMBER_OF_RINGS>
1

>  <JCHEM_PHYSIOLOGICAL_CHARGE>
0

>  <JCHEM_PKA>
9.1361017

>  <JCHEM_PKA_STRONGEST_ACIDIC>
1.7286927

>  <JCHEM_PKA_STRONGEST_BASIC>
9.8477354

>  <JCHEM_POLAR_SURFACE_AREA>
103.78

>  <JCHEM_REFRACTIVITY>
53.791401

>  <JCHEM_ROTATABLE_BOND_COUNT>
3

>  <JCHEM_RULE_OF_FIVE>
1

>  <ALOGPS_SOLUBILITY>
2.26e+00 g/l

>  <JCHEM_TRADITIONAL_IUPAC>
methyldopa

>  <JCHEM_VEBER_RULE>
0

>  <DRUGBANK_ID>
DB00968

>  <DRUG_GROUPS>
approved

>  <GENERIC_NAME>
Methyldopa

>  <SYNONYMS>
(S)-(-)-alpha-Methyldopa; 3-Hydroxy-alpha-methyl-L-tyrosine; Alpha medopa; alpha-Methyl dopa; Alphamethyldopa; AMD; L-alpha-Methyldopa; L-Methyl Dopa; α-methyl-L-dopa

>  <BRANDS>
Aldomet; Aldometil; Aldomin; Dopamet; Hypolag; Medomet; Medopren; Novomedopa; Nu-Medopa

>  <SALTS>
Methyldopa sesquihydrate

$$$$
Alosetron
 OpenBabel02121510022D

 22 25  0  0  0  0  0  0  0  0999 V2000
    4.2710   -1.6690    0.0000 O   0  0  0  0  0  0  0  0  0  0  0  0
    5.3330   -0.7530    0.0000 N   0  0  0  0  0  0  0  0  0  0  0  0
    3.5860    0.9220    0.0000 N   0  0  0  0  0  0  0  0  0  0  0  0
    7.2220   -1.7140    0.0000 N   0  0  0  0  0  0  0  0  0  0  0  0
    7.7480   -0.5450    0.0000 N   0  0  0  0  0  0  0  0  0  0  0  0
    4.2270    0.4560    0.0000 C   0  0  0  0  0  0  0  0  0  0  0  0
    5.0310    0.6400    0.0000 C   0  0  0  0  0  0  0  0  0  0  0  0
    3.9820   -0.2970    0.0000 C   0  0  0  0  0  0  0  0  0  0  0  0
    5.5880    0.0320    0.0000 C   0  0  0  0  0  0  0  0  0  0  0  0
    3.1900   -0.2970    0.0000 C   0  0  0  0  0  0  0  0  0  0  0  0
    2.9450    0.4560    0.0000 C   0  0  0  0  0  0  0  0  0  0  0  0
    4.5240   -0.9180    0.0000 C   0  0  0  0  0  0  0  0  0  0  0  0
    5.8600   -1.3440    0.0000 C   0  0  0  0  0  0  0  0  0  0  0  0
    3.5860    1.7140    0.0000 C   0  0  0  0  0  0  0  0  0  0  0  0
    2.6470   -0.9180    0.0000 C   0  0  0  0  0  0  0  0  0  0  0  0
    2.1410    0.6400    0.0000 C   0  0  0  0  0  0  0  0  0  0  0  0
    6.6360   -1.1820    0.0000 C   0  0  0  0  0  0  0  0  0  0  0  0
    1.8390   -0.7530    0.0000 C   0  0  0  0  0  0  0  0  0  0  0  0
    1.5840    0.0320    0.0000 C   0  0  0  0  0  0  0  0  0  0  0  0
    6.9610   -0.4600    0.0000 C   0  0  0  0  0  0  0  0  0  0  0  0
    6.5670    0.2280    0.0000 C   0  0  0  0  0  0  0  0  0  0  0  0
    7.9100   -1.3210    0.0000 C   0  0  0  0  0  0  0  0  0  0  0  0
  1 12  2  0  0  0  0
  2  9  1  0  0  0  0
  2 12  1  0  0  0  0
  2 13  1  0  0  0  0
  3  6  1  0  0  0  0
  3 11  1  0  0  0  0
  3 14  1  0  0  0  0
  4 17  1  0  0  0  0
  4 22  2  0  0  0  0
  5 20  1  0  0  0  0
  5 22  1  0  0  0  0
  6  7  1  0  0  0  0
  6  8  2  0  0  0  0
  7  9  1  0  0  0  0
  8 10  1  0  0  0  0
  8 12  1  0  0  0  0
 10 11  2  0  0  0  0
 10 15  1  0  0  0  0
 11 16  1  0  0  0  0
 13 17  1  0  0  0  0
 15 18  2  0  0  0  0
 16 19  2  0  0  0  0
 17 20  2  0  0  0  0
 18 19  1  0  0  0  0
 20 21  1  0  0  0  0
M  END
>  <DATABASE_ID>
DB00969

>  <DATABASE_NAME>
drugbank

>  <SMILES>
O=C1N(CCc2n(c3c(c12)cccc3)C)Cc1nc[nH]c1C

>  <INCHI_IDENTIFIER>
InChI=1S/C17H18N4O/c1-11-13(19-10-18-11)9-21-8-7-15-16(17(21)22)12-5-3-4-6-14(12)20(15)2/h3-6,10H,7-9H2,1-2H3,(H,18,19)

>  <INCHI_KEY>
InChIKey=JSWZEAMFRNKZNL-UHFFFAOYSA-N

>  <JCHEM_ACCEPTOR_COUNT>
2

>  <JCHEM_AVERAGE_POLARIZABILITY>
32.51709

>  <JCHEM_BIOAVAILABILITY>
1

>  <JCHEM_DONOR_COUNT>
1

>  <JCHEM_EXACT_MASS>
294.14807

>  <JCHEM_FORMAL_CHARGE>
0

>  <JCHEM_FORMULA>
C17H18N4O

>  <JCHEM_GHOSE_FILTER>
1

>  <JCHEM_IUPAC>
5-methyl-2-[(5-methyl-1H-imidazol-4-yl)methyl]-1H,2H,3H,4H,5H-pyrido[4,3-b]indol-1-one

>  <ALOGPS_LOGP>
1.85

>  <JCHEM_LOGP>
1.2119008

>  <ALOGPS_LOGS>
-2.8299999

>  <JCHEM_MASS>
294.35101

>  <JCHEM_MDDR_LIKE_RULE>
0

>  <JCHEM_NUMBER_OF_RINGS>
4

>  <JCHEM_PHYSIOLOGICAL_CHARGE>
0

>  <JCHEM_PKA_STRONGEST_ACIDIC>
13.315839

>  <JCHEM_PKA_STRONGEST_BASIC>
6.8094764

>  <JCHEM_POLAR_SURFACE_AREA>
53.919998

>  <JCHEM_REFRACTIVITY>
86.405403

>  <JCHEM_ROTATABLE_BOND_COUNT>
2

>  <JCHEM_RULE_OF_FIVE>
1

>  <ALOGPS_SOLUBILITY>
4.38e-01 g/l

>  <JCHEM_TRADITIONAL_IUPAC>
alosetron

>  <JCHEM_VEBER_RULE>
0

>  <DRUGBANK_ID>
DB00969

>  <DRUG_GROUPS>
approved; withdrawn

>  <GENERIC_NAME>
Alosetron

>  <SALTS>
Alosetron Hydrochloride

$$$$
Ezetimibe
 OpenBabel02121510022D

 30 33  0  0  1  0  0  0  0  0999 V2000
    1.6500    0.2830    0.0000 F   0  0  0  0  0  0  0  0  0  0  0  0
    9.8290    3.8560    0.0000 F   0  0  0  0  0  0  0  0  0  0  0  0
    5.5340    1.6920    0.0000 O   0  0  0  0  0  0  0  0  0  0  0  0
    8.5920    0.2830    0.0000 O   0  0  0  0  0  0  0  0  0  0  0  0
    5.5340   -3.6000    0.0000 O   0  0  0  0  0  0  0  0  0  0  0  0
    4.9500    0.2830    0.0000 N   0  0  0  0  0  0  0  0  0  0  0  0
    6.1170    0.2830    0.0000 C   0  0  1  0  0  0  0  0  0  0  0  0
    5.5340   -0.3000    0.0000 C   0  0  1  0  0  0  0  0  0  0  0  0
    6.9420    0.2830    0.0000 C   0  0  0  0  0  0  0  0  0  0  0  0
    5.5340    0.8670    0.0000 C   0  0  0  0  0  0  0  0  0  0  0  0
    5.5340   -1.1250    0.0000 C   0  0  0  0  0  0  0  0  0  0  0  0
    7.3540    0.9980    0.0000 C   0  0  0  0  0  0  0  0  0  0  0  0
    4.1250    0.2830    0.0000 C   0  0  0  0  0  0  0  0  0  0  0  0
    8.1790    0.9980    0.0000 C   0  0  1  0  0  0  0  0  0  0  0  0
    6.2480   -1.5380    0.0000 C   0  0  0  0  0  0  0  0  0  0  0  0
    4.8190   -1.5380    0.0000 C   0  0  0  0  0  0  0  0  0  0  0  0
    3.7130   -0.4310    0.0000 C   0  0  0  0  0  0  0  0  0  0  0  0
    3.7130    0.9980    0.0000 C   0  0  0  0  0  0  0  0  0  0  0  0
    8.5920    1.7120    0.0000 C   0  0  0  0  0  0  0  0  0  0  0  0
    6.2480   -2.3620    0.0000 C   0  0  0  0  0  0  0  0  0  0  0  0
    4.8190   -2.3620    0.0000 C   0  0  0  0  0  0  0  0  0  0  0  0
    5.5340   -2.7750    0.0000 C   0  0  0  0  0  0  0  0  0  0  0  0
    2.8880   -0.4310    0.0000 C   0  0  0  0  0  0  0  0  0  0  0  0
    2.8880    0.9980    0.0000 C   0  0  0  0  0  0  0  0  0  0  0  0
    8.1790    2.4270    0.0000 C   0  0  0  0  0  0  0  0  0  0  0  0
    9.4170    1.7120    0.0000 C   0  0  0  0  0  0  0  0  0  0  0  0
    2.4750    0.2830    0.0000 C   0  0  0  0  0  0  0  0  0  0  0  0
    8.5920    3.1410    0.0000 C   0  0  0  0  0  0  0  0  0  0  0  0
    9.8290    2.4270    0.0000 C   0  0  0  0  0  0  0  0  0  0  0  0
    9.4170    3.1410    0.0000 C   0  0  0  0  0  0  0  0  0  0  0  0
  1 27  1  0  0  0  0
  2 30  1  0  0  0  0
  3 10  2  0  0  0  0
  5 22  1  0  0  0  0
  6  8  1  0  0  0  0
  6 10  1  0  0  0  0
  6 13  1  0  0  0  0
  7  8  1  0  0  0  0
  7  9  1  6  0  0  0
  7 10  1  0  0  0  0
  8 11  1  1  0  0  0
  9 12  1  0  0  0  0
 11 15  1  0  0  0  0
 11 16  2  0  0  0  0
 13 17  1  0  0  0  0
 13 18  2  0  0  0  0
 14 12  1  1  0  0  0
 14  4  1  0  0  0  0
 14 19  1  0  0  0  0
 15 20  2  0  0  0  0
 16 21  1  0  0  0  0
 17 23  2  0  0  0  0
 18 24  1  0  0  0  0
 19 25  1  0  0  0  0
 19 26  2  0  0  0  0
 20 22  1  0  0  0  0
 21 22  2  0  0  0  0
 23 27  1  0  0  0  0
 24 27  2  0  0  0  0
 25 28  2  0  0  0  0
 26 29  1  0  0  0  0
 28 30  1  0  0  0  0
 29 30  2  0  0  0  0
M  END
>  <DATABASE_ID>
DB00973

>  <DATABASE_NAME>
drugbank

>  <SMILES>
Fc1ccc(cc1)[C@@H](O)CC[C@@H]1[C@H](N(C1=O)c1ccc(F)cc1)c1ccc(O)cc1

>  <INCHI_IDENTIFIER>
InChI=1S/C24H21F2NO3/c25-17-5-1-15(2-6-17)22(29)14-13-21-23(16-3-11-20(28)12-4-16)27(24(21)30)19-9-7-18(26)8-10-19/h1-12,21-23,28-29H,13-14H2/t21-,22+,23-/m1/s1

>  <INCHI_KEY>
InChIKey=OLNTVTPDXPETLC-XPWALMASSA-N

>  <JCHEM_ACCEPTOR_COUNT>
3

>  <JCHEM_AVERAGE_POLARIZABILITY>
41.642265

>  <JCHEM_BIOAVAILABILITY>
1

>  <JCHEM_DONOR_COUNT>
2

>  <JCHEM_EXACT_MASS>
409.14896

>  <JCHEM_FORMAL_CHARGE>
0

>  <JCHEM_FORMULA>
C24H21F2NO3

>  <JCHEM_GHOSE_FILTER>
1

>  <JCHEM_IUPAC>
(3R,4S)-1-(4-fluorophenyl)-3-[(3S)-3-(4-fluorophenyl)-3-hydroxypropyl]-4-(4-hydroxyphenyl)azetidin-2-one

>  <ALOGPS_LOGP>
4.1399999

>  <JCHEM_LOGP>
4.5591278

>  <ALOGPS_LOGS>
-4.6799998

>  <JCHEM_MASS>
409.4252

>  <JCHEM_MDDR_LIKE_RULE>
1

>  <JCHEM_NUMBER_OF_RINGS>
4

>  <JCHEM_PHYSIOLOGICAL_CHARGE>
0

>  <JCHEM_PKA>
14.443302

>  <JCHEM_PKA_STRONGEST_ACIDIC>
9.4842987

>  <JCHEM_PKA_STRONGEST_BASIC>
-3.0422883

>  <JCHEM_POLAR_SURFACE_AREA>
60.77

>  <JCHEM_REFRACTIVITY>
108.8617

>  <JCHEM_ROTATABLE_BOND_COUNT>
6

>  <JCHEM_RULE_OF_FIVE>
1

>  <ALOGPS_SOLUBILITY>
8.46e-03 g/l

>  <JCHEM_TRADITIONAL_IUPAC>
ezetimibe

>  <JCHEM_VEBER_RULE>
0

>  <DRUGBANK_ID>
DB00973

>  <DRUG_GROUPS>
approved

>  <GENERIC_NAME>
Ezetimibe

>  <BRANDS>
Ezedoc; Ezetib; Ezetrol; Zetia; Zient

$$$$
Dipyridamole
 OpenBabel02121510022D

 36 39  0  0  0  0  0  0  0  0999 V2000
   10.7230    0.4550    0.0000 O   0  0  0  0  0  0  0  0  0  0  0  0
    9.2840    2.9240    0.0000 O   0  0  0  0  0  0  0  0  0  0  0  0
    3.5220   -2.8730    0.0000 O   0  0  0  0  0  0  0  0  0  0  0  0
    2.0930   -0.3980    0.0000 O   0  0  0  0  0  0  0  0  0  0  0  0
    7.1080   -1.6640    0.0000 N   0  0  0  0  0  0  0  0  0  0  0  0
    5.6660    1.6640    0.0000 N   0  0  0  0  0  0  0  0  0  0  0  0
    7.8650   -0.4160    0.0000 N   0  0  0  0  0  0  0  0  0  0  0  0
    4.9510    0.4270    0.0000 N   0  0  0  0  0  0  0  0  0  0  0  0
    7.1170    0.8680    0.0000 N   0  0  0  0  0  0  0  0  0  0  0  0
    5.6660   -0.8110    0.0000 N   0  0  0  0  0  0  0  0  0  0  0  0
    8.5780    0.8590    0.0000 N   0  0  0  0  0  0  0  0  0  0  0  0
    4.2360   -0.8110    0.0000 N   0  0  0  0  0  0  0  0  0  0  0  0
    6.3890   -2.0690    0.0000 C   0  0  0  0  0  0  0  0  0  0  0  0
    7.8180   -2.0850    0.0000 C   0  0  0  0  0  0  0  0  0  0  0  0
    6.3800    2.0770    0.0000 C   0  0  0  0  0  0  0  0  0  0  0  0
    4.9510    2.0770    0.0000 C   0  0  0  0  0  0  0  0  0  0  0  0
    6.3790   -2.8940    0.0000 C   0  0  0  0  0  0  0  0  0  0  0  0
    7.8080   -2.9100    0.0000 C   0  0  0  0  0  0  0  0  0  0  0  0
    6.3800    2.9020    0.0000 C   0  0  0  0  0  0  0  0  0  0  0  0
    4.9510    2.9020    0.0000 C   0  0  0  0  0  0  0  0  0  0  0  0
    7.0890   -3.3140    0.0000 C   0  0  0  0  0  0  0  0  0  0  0  0
    5.6660    3.3140    0.0000 C   0  0  0  0  0  0  0  0  0  0  0  0
    7.1170   -0.8390    0.0000 C   0  0  0  0  0  0  0  0  0  0  0  0
    5.6660    0.8390    0.0000 C   0  0  0  0  0  0  0  0  0  0  0  0
    6.3800    0.4270    0.0000 C   0  0  0  0  0  0  0  0  0  0  0  0
    6.3800   -0.3980    0.0000 C   0  0  0  0  0  0  0  0  0  0  0  0
    7.8650    0.4440    0.0000 C   0  0  0  0  0  0  0  0  0  0  0  0
    4.9510   -0.3980    0.0000 C   0  0  0  0  0  0  0  0  0  0  0  0
    9.2940    0.4490    0.0000 C   0  0  0  0  0  0  0  0  0  0  0  0
    8.5750    1.6840    0.0000 C   0  0  0  0  0  0  0  0  0  0  0  0
    4.2360   -1.6360    0.0000 C   0  0  0  0  0  0  0  0  0  0  0  0
    3.5220   -0.3980    0.0000 C   0  0  0  0  0  0  0  0  0  0  0  0
   10.0070    0.8650    0.0000 C   0  0  0  0  0  0  0  0  0  0  0  0
    9.2880    2.0990    0.0000 C   0  0  0  0  0  0  0  0  0  0  0  0
    3.5220   -2.0480    0.0000 C   0  0  0  0  0  0  0  0  0  0  0  0
    2.8080   -0.8110    0.0000 C   0  0  0  0  0  0  0  0  0  0  0  0
  1 33  1  0  0  0  0
  2 34  1  0  0  0  0
  3 35  1  0  0  0  0
  4 36  1  0  0  0  0
  5 13  1  0  0  0  0
  5 14  1  0  0  0  0
  5 23  1  0  0  0  0
  6 15  1  0  0  0  0
  6 16  1  0  0  0  0
  6 24  1  0  0  0  0
  7 23  1  0  0  0  0
  7 27  2  0  0  0  0
  8 24  2  0  0  0  0
  8 28  1  0  0  0  0
  9 25  2  0  0  0  0
  9 27  1  0  0  0  0
 10 26  1  0  0  0  0
 10 28  2  0  0  0  0
 11 27  1  0  0  0  0
 11 29  1  0  0  0  0
 11 30  1  0  0  0  0
 12 28  1  0  0  0  0
 12 31  1  0  0  0  0
 12 32  1  0  0  0  0
 13 17  1  0  0  0  0
 14 18  1  0  0  0  0
 15 19  1  0  0  0  0
 16 20  1  0  0  0  0
 17 21  1  0  0  0  0
 18 21  1  0  0  0  0
 19 22  1  0  0  0  0
 20 22  1  0  0  0  0
 23 26  2  0  0  0  0
 24 25  1  0  0  0  0
 25 26  1  0  0  0  0
 29 33  1  0  0  0  0
 30 34  1  0  0  0  0
 31 35  1  0  0  0  0
 32 36  1  0  0  0  0
M  END
>  <DATABASE_ID>
DB00975

>  <DATABASE_NAME>
drugbank

>  <SMILES>
OCCN(CCO)c1nc(N2CCCCC2)c2nc(nc(N3CCCCC3)c2n1)N(CCO)CCO

>  <INCHI_IDENTIFIER>
InChI=1S/C24H40N8O4/c33-15-11-31(12-16-34)23-26-20-19(21(27-23)29-7-3-1-4-8-29)25-24(32(13-17-35)14-18-36)28-22(20)30-9-5-2-6-10-30/h33-36H,1-18H2

>  <INCHI_KEY>
InChIKey=IZEKFCXSFNUWAM-UHFFFAOYSA-N

>  <JCHEM_ACCEPTOR_COUNT>
12

>  <JCHEM_AVERAGE_POLARIZABILITY>
56.935604

>  <JCHEM_BIOAVAILABILITY>
0

>  <JCHEM_DONOR_COUNT>
4

>  <JCHEM_EXACT_MASS>
504.31726

>  <JCHEM_FORMAL_CHARGE>
0

>  <JCHEM_FORMULA>
C24H40N8O4

>  <JCHEM_GHOSE_FILTER>
0

>  <JCHEM_IUPAC>
2-({6-[bis(2-hydroxyethyl)amino]-4,8-bis(piperidin-1-yl)pyrimido[5,4-d][1,3]diazin-2-yl}(2-hydroxyethyl)amino)ethan-1-ol

>  <ALOGPS_LOGP>
1.52

>  <JCHEM_LOGP>
1.8063892

>  <ALOGPS_LOGS>
-2.74

>  <JCHEM_MASS>
504.62561

>  <JCHEM_MDDR_LIKE_RULE>
1

>  <JCHEM_NUMBER_OF_RINGS>
4

>  <JCHEM_PHYSIOLOGICAL_CHARGE>
0

>  <JCHEM_PKA>
15.397675

>  <JCHEM_PKA_STRONGEST_ACIDIC>
14.971636

>  <JCHEM_PKA_STRONGEST_BASIC>
6.5870271

>  <JCHEM_POLAR_SURFACE_AREA>
145.44

>  <JCHEM_REFRACTIVITY>
142.7794

>  <JCHEM_ROTATABLE_BOND_COUNT>
12

>  <JCHEM_RULE_OF_FIVE>
0

>  <ALOGPS_SOLUBILITY>
9.22e-01 g/l

>  <JCHEM_TRADITIONAL_IUPAC>
dipyridamole

>  <JCHEM_VEBER_RULE>
0

>  <DRUGBANK_ID>
DB00975

>  <DRUG_GROUPS>
approved

>  <GENERIC_NAME>
Dipyridamole

>  <SYNONYMS>
Dipyridamine; Dipyudamine; Dypyridamol

>  <BRANDS>
Agilease; Cardoxin; Cleridium 150; Curantyl; Persantin; Persantine

$$$$
Telithromycin
 OpenBabel02121510022D

 58 62  0  0  1  0  0  0  0  0999 V2000
    2.3640   -0.6240    0.0000 O   0  0  0  0  0  0  0  0  0  0  0  0
    4.5700   -0.9400    0.0000 O   0  0  0  0  0  0  0  0  0  0  0  0
    7.9630    0.7280    0.0000 O   0  0  0  0  0  0  0  0  0  0  0  0
    7.2550    1.5670    0.0000 O   0  0  0  0  0  0  0  0  0  0  0  0
    8.3400   -0.6510    0.0000 O   0  0  0  0  0  0  0  0  0  0  0  0
    3.8170    1.8170    0.0000 O   0  0  0  0  0  0  0  0  0  0  0  0
    1.2670    0.3550    0.0000 O   0  0  0  0  0  0  0  0  0  0  0  0
    9.5550    1.1620    0.0000 O   0  0  0  0  0  0  0  0  0  0  0  0
    5.5760    0.0760    0.0000 O   0  0  0  0  0  0  0  0  0  0  0  0
    4.9460   -2.3180    0.0000 O   0  0  0  0  0  0  0  0  0  0  0  0
    2.7040    0.6680    0.0000 N   0  0  0  0  0  0  0  0  0  0  0  0
   10.7270    0.0010    0.0000 N   0  0  0  0  0  0  0  0  0  0  0  0
    1.0890    3.8800    0.0000 N   0  0  0  0  0  0  0  0  0  0  0  0
    1.4280    5.1720    0.0000 N   0  0  0  0  0  0  0  0  0  0  0  0
   -0.1480    7.1730    0.0000 N   0  0  0  0  0  0  0  0  0  0  0  0
    3.3980    0.2220    0.0000 C   0  0  1  0  0  0  0  0  0  0  0  0
    3.1880   -0.5760    0.0000 C   0  0  2  0  0  0  0  0  0  0  0  0
    4.1940    0.4390    0.0000 C   0  0  2  0  0  0  0  0  0  0  0  0
    3.7740   -1.1570    0.0000 C   0  0  2  0  0  0  0  0  0  0  0  0
    6.5810    1.0910    0.0000 C   0  0  2  0  0  0  0  0  0  0  0  0
    5.1990    1.4540    0.0000 C   0  0  1  0  0  0  0  0  0  0  0  0
    4.4030    1.2370    0.0000 C   0  0  0  0  0  0  0  0  0  0  0  0
    5.7850    0.8730    0.0000 C   0  0  0  0  0  0  0  0  0  0  0  0
    7.1670    0.5100    0.0000 C   0  0  1  0  0  0  0  0  0  0  0  0
    2.8960   -1.3480    0.0000 C   0  0  0  0  0  0  0  0  0  0  0  0
    2.0650    0.1450    0.0000 C   0  0  0  0  0  0  0  0  0  0  0  0
    2.6570    1.4910    0.0000 C   0  0  0  0  0  0  0  0  0  0  0  0
    4.7800   -0.1420    0.0000 C   0  0  0  0  0  0  0  0  0  0  0  0
    3.5640   -1.9550    0.0000 C   0  0  0  0  0  0  0  0  0  0  0  0
    6.9580   -0.2880    0.0000 C   0  0  2  0  0  0  0  0  0  0  0  0
    6.2290    1.8370    0.0000 C   0  0  0  0  0  0  0  0  0  0  0  0
    8.5490    0.1470    0.0000 C   0  0  2  0  0  0  0  0  0  0  0  0
    5.4090    2.2520    0.0000 C   0  0  0  0  0  0  0  0  0  0  0  0
    1.9200    1.8620    0.0000 C   0  0  0  0  0  0  0  0  0  0  0  0
    9.3450    0.3640    0.0000 C   0  0  1  0  0  0  0  0  0  0  0  0
    9.9310   -0.2160    0.0000 C   0  0  2  0  0  0  0  0  0  0  0  0
    6.1620   -0.5050    0.0000 C   0  0  0  0  0  0  0  0  0  0  0  0
    5.9520   -1.3030    0.0000 C   0  0  2  0  0  0  0  0  0  0  0  0
    9.7220   -1.0140    0.0000 C   0  0  0  0  0  0  0  0  0  0  0  0
    2.7690   -2.1720    0.0000 C   0  0  0  0  0  0  0  0  0  0  0  0
    5.1560   -1.5200    0.0000 C   0  0  0  0  0  0  0  0  0  0  0  0
    7.5440   -0.8680    0.0000 C   0  0  0  0  0  0  0  0  0  0  0  0
    8.9260   -1.2320    0.0000 C   0  0  1  0  0  0  0  0  0  0  0  0
    1.8730    2.6860    0.0000 C   0  0  0  0  0  0  0  0  0  0  0  0
    6.5380   -1.8840    0.0000 C   0  0  0  0  0  0  0  0  0  0  0  0
    8.0040    1.2220    0.0000 C   0  0  0  0  0  0  0  0  0  0  0  0
    8.7160   -2.0300    0.0000 C   0  0  0  0  0  0  0  0  0  0  0  0
    1.1360    3.0570    0.0000 C   0  0  0  0  0  0  0  0  0  0  0  0
   11.3130   -0.5800    0.0000 C   0  0  0  0  0  0  0  0  0  0  0  0
   10.9370    0.7990    0.0000 C   0  0  0  0  0  0  0  0  0  0  0  0
    0.3950    4.3270    0.0000 C   0  0  0  0  0  0  0  0  0  0  0  0
    1.7280    4.4030    0.0000 C   0  0  0  0  0  0  0  0  0  0  0  0
    0.6040    5.1240    0.0000 C   0  0  0  0  0  0  0  0  0  0  0  0
    0.0820    5.7630    0.0000 C   0  0  0  0  0  0  0  0  0  0  0  0
   -0.7320    5.6300    0.0000 C   0  0  0  0  0  0  0  0  0  0  0  0
    0.3740    6.5350    0.0000 C   0  0  0  0  0  0  0  0  0  0  0  0
   -1.2540    6.2690    0.0000 C   0  0  0  0  0  0  0  0  0  0  0  0
   -0.9620    7.0400    0.0000 C   0  0  0  0  0  0  0  0  0  0  0  0
  1 17  1  0  0  0  0
  1 26  1  0  0  0  0
  2 19  1  0  0  0  0
  2 41  1  0  0  0  0
  4 46  1  0  0  0  0
  5 32  1  0  0  0  0
  5 43  1  0  0  0  0
  6 22  2  0  0  0  0
  7 26  2  0  0  0  0
  9 37  2  0  0  0  0
 10 41  2  0  0  0  0
 11 26  1  0  0  0  0
 11 27  1  0  0  0  0
 12 49  1  0  0  0  0
 12 50  1  0  0  0  0
 13 48  1  0  0  0  0
 13 51  1  0  0  0  0
 13 52  1  0  0  0  0
 14 52  2  0  0  0  0
 14 53  1  0  0  0  0
 15 56  1  0  0  0  0
 15 58  2  0  0  0  0
 16 11  1  6  0  0  0
 16 17  1  0  0  0  0
 16 18  1  0  0  0  0
 17 19  1  0  0  0  0
 17 25  1  1  0  0  0
 18 22  1  0  0  0  0
 18 28  1  6  0  0  0
 19 29  1  1  0  0  0
 20  4  1  1  0  0  0
 20 23  1  0  0  0  0
 20 24  1  0  0  0  0
 20 31  1  0  0  0  0
 21 22  1  0  0  0  0
 21 23  1  0  0  0  0
 21 33  1  6  0  0  0
 24  3  1  6  0  0  0
 24 30  1  0  0  0  0
 27 34  1  0  0  0  0
 29 40  1  0  0  0  0
 30 37  1  0  0  0  0
 30 42  1  1  0  0  0
 32  3  1  1  0  0  0
 32 35  1  0  0  0  0
 34 44  1  0  0  0  0
 35  8  1  6  0  0  0
 35 36  1  0  0  0  0
 36 12  1  1  0  0  0
 36 39  1  0  0  0  0
 37 38  1  0  0  0  0
 38 41  1  0  0  0  0
 38 45  1  1  0  0  0
 39 43  1  0  0  0  0
 43 47  1  1  0  0  0
 44 48  1  0  0  0  0
 51 53  2  0  0  0  0
 53 54  1  0  0  0  0
 54 55  1  0  0  0  0
 54 56  2  0  0  0  0
 55 57  2  0  0  0  0
 57 58  1  0  0  0  0
M  END
>  <DATABASE_ID>
DB00976

>  <DATABASE_NAME>
drugbank

>  <SMILES>
O1[C@@H](CC)[C@@]2(OC(=O)N([C@@H]2[C@@H](C)C(=O)[C@@H](C[C@](OC)(C)[C@H](O[C@@H]2O[C@@H](C[C@H](N(C)C)[C@H]2O)C)[C@@H](C)C(=O)[C@@H](C)C1=O)C)CCCCn1cc(nc1)-c1cccnc1)C

>  <INCHI_IDENTIFIER>
InChI=1S/C43H65N5O10/c1-12-33-43(8)37(48(41(53)58-43)19-14-13-18-47-23-31(45-24-47)30-16-15-17-44-22-30)27(4)34(49)25(2)21-42(7,54-11)38(28(5)35(50)29(6)39(52)56-33)57-40-36(51)32(46(9)10)20-26(3)55-40/h15-17,22-29,32-33,36-38,40,51H,12-14,18-21H2,1-11H3/t25-,26-,27+,28+,29-,32+,33+,36-,37-,38-,40+,42-,43+/m1/s1

>  <INCHI_KEY>
InChIKey=LJVAJPDWBABPEJ-RMNISARHSA-N

>  <JCHEM_ACCEPTOR_COUNT>
11

>  <JCHEM_AVERAGE_POLARIZABILITY>
89.266235

>  <JCHEM_BIOAVAILABILITY>
0

>  <JCHEM_DONOR_COUNT>
1

>  <JCHEM_EXACT_MASS>
811.47314

>  <JCHEM_FORMAL_CHARGE>
0

>  <JCHEM_FORMULA>
C43H65N5O10

>  <JCHEM_GHOSE_FILTER>
0

>  <JCHEM_IUPAC>
(3aR,4S,7R,9R,10R,11R,13R,15R,15aR)-10-{[(2S,3R,4S,6R)-4-(dimethylamino)-3-hydroxy-6-methyloxan-2-yl]oxy}-4-ethyl-11-methoxy-3a,7,9,11,13,15-hexamethyl-1-{4-[4-(pyridin-3-yl)-1H-imidazol-1-yl]butyl}-tetradecahydro-1H-oxacyclotetradeca[4,3-d][1,3]oxazole-2,6,8,14-tetrone

>  <ALOGPS_LOGP>
4

>  <JCHEM_LOGP>
5.3671851

>  <ALOGPS_LOGS>
-4.46

>  <JCHEM_MASS>
812.00372

>  <JCHEM_MDDR_LIKE_RULE>
1

>  <JCHEM_NUMBER_OF_RINGS>
5

>  <JCHEM_PHYSIOLOGICAL_CHARGE>
1

>  <JCHEM_PKA>
12.831697

>  <JCHEM_PKA_STRONGEST_ACIDIC>
8.8389635

>  <JCHEM_PKA_STRONGEST_BASIC>
7.6545243

>  <JCHEM_POLAR_SURFACE_AREA>
171.85001

>  <JCHEM_REFRACTIVITY>
214.6835

>  <JCHEM_ROTATABLE_BOND_COUNT>
11

>  <JCHEM_RULE_OF_FIVE>
0

>  <ALOGPS_SOLUBILITY>
2.83e-02 g/l

>  <JCHEM_TRADITIONAL_IUPAC>
(3aR,4S,7R,9R,10R,11R,13R,15R,15aR)-10-{[(2S,3R,4S,6R)-4-(dimethylamino)-3-hydroxy-6-methyloxan-2-yl]oxy}-4-ethyl-11-methoxy-3a,7,9,11,13,15-hexamethyl-1-{4-[4-(pyridin-3-yl)imidazol-1-yl]butyl}-octahydrooxacyclotetradeca[4,3-d][1,3]oxazole-2,6,8,14-tetrone

>  <JCHEM_VEBER_RULE>
0

>  <DRUGBANK_ID>
DB00976

>  <DRUG_GROUPS>
approved

>  <GENERIC_NAME>
Telithromycin

$$$$
Ethinyl Estradiol
 OpenBabel02121510022D

 25 28  0  0  1  0  0  0  0  0999 V2000
    7.7250    1.5550    0.0000 O   0  0  0  0  0  0  0  0  0  0  0  0
    2.3630   -1.9990    0.0000 O   0  0  0  0  0  0  0  0  0  0  0  0
    6.8120    0.5180    0.0000 C   0  0  1  0  0  0  0  0  0  0  0  0
    6.8120   -0.3060    0.0000 C   0  0  2  0  0  0  0  0  0  0  0  0
    6.0970   -0.7190    0.0000 C   0  0  2  0  0  0  0  0  0  0  0  0
    7.5920    0.7700    0.0000 C   0  0  2  0  0  0  0  0  0  0  0  0
    6.0970    0.9310    0.0000 C   0  0  0  0  0  0  0  0  0  0  0  0
    7.5920   -0.5580    0.0000 C   0  0  0  0  0  0  0  0  0  0  0  0
    5.3830    0.5180    0.0000 C   0  0  0  0  0  0  0  0  0  0  0  0
    8.0730    0.1060    0.0000 C   0  0  0  0  0  0  0  0  0  0  0  0
    6.1100   -1.5780    0.0000 C   0  0  0  0  0  0  0  0  0  0  0  0
    6.8120    1.3430    0.0000 C   0  0  0  0  0  0  0  0  0  0  0  0
    4.6320   -0.7240    0.0000 C   0  0  0  0  0  0  0  0  0  0  0  0
    5.3700   -2.0130    0.0000 C   0  0  0  0  0  0  0  0  0  0  0  0
    4.6260   -1.5840    0.0000 C   0  0  0  0  0  0  0  0  0  0  0  0
    8.2600    0.9260    0.0000 C   0  0  0  0  0  0  0  0  0  0  0  0
    3.8670   -0.2590    0.0000 C   0  0  0  0  0  0  0  0  0  0  0  0
    3.8540   -2.0370    0.0000 C   0  0  0  0  0  0  0  0  0  0  0  0
    3.0860   -0.6950    0.0000 C   0  0  0  0  0  0  0  0  0  0  0  0
    3.0780   -1.5900    0.0000 C   0  0  0  0  0  0  0  0  0  0  0  0
    9.0770    1.0530    0.0000 C   0  0  0  0  0  0  0  0  0  0  0  0
    6.0760    0.0860    0.0000 H   0  0  0  0  0  0  0  0  0  0  0  0
    5.3830   -0.3060    0.0000 C   0  0  2  0  0  0  0  0  0  0  0  0
    5.3760   -1.1310    0.0000 H   0  0  0  0  0  0  0  0  0  0  0  0
    6.8990   -1.1270    0.0000 H   0  0  0  0  0  0  0  0  0  0  0  0
  2 20  1  0  0  0  0
  3  4  1  0  0  0  0
  3  6  1  0  0  0  0
  3  7  1  0  0  0  0
  3 12  1  1  0  0  0
  4  5  1  0  0  0  0
  4  8  1  0  0  0  0
  4 25  1  6  0  0  0
  5 11  1  0  0  0  0
  5 22  1  1  0  0  0
  5 23  1  0  0  0  0
  6  1  1  1  0  0  0
  6 10  1  0  0  0  0
  6 16  1  0  0  0  0
  7  9  1  0  0  0  0
  8 10  1  0  0  0  0
  9 23  1  0  0  0  0
 11 14  1  0  0  0  0
 13 15  2  0  0  0  0
 13 17  1  0  0  0  0
 13 23  1  0  0  0  0
 14 15  1  0  0  0  0
 15 18  1  0  0  0  0
 16 21  3  0  0  0  0
 17 19  2  0  0  0  0
 18 20  2  0  0  0  0
 19 20  1  0  0  0  0
 23 24  1  6  0  0  0
M  END
>  <DATABASE_ID>
DB00977

>  <DATABASE_NAME>
drugbank

>  <SMILES>
Oc1cc2CC[C@H]3[C@@H]4CC[C@@](O)(C#C)[C@]4(CC[C@@H]3c2cc1)C

>  <INCHI_IDENTIFIER>
InChI=1/C20H24O2/c1-3-20(22)11-9-18-17-6-4-13-12-14(21)5-7-15(13)16(17)8-10-19(18,20)2/h1,5,7,12,16-18,21-22H,4,6,8-11H2,2H3/t16-,17-,18+,19+,20+/s2

>  <INCHI_KEY>
InChIKey=BFPYWIDHMRZLRN-RHKZOZTBNA-N

>  <JCHEM_ACCEPTOR_COUNT>
2

>  <JCHEM_AVERAGE_POLARIZABILITY>
34.533543

>  <JCHEM_BIOAVAILABILITY>
1

>  <JCHEM_DONOR_COUNT>
2

>  <JCHEM_EXACT_MASS>
296.17764

>  <JCHEM_FORMAL_CHARGE>
0

>  <JCHEM_FORMULA>
C20H24O2

>  <JCHEM_GHOSE_FILTER>
1

>  <JCHEM_IUPAC>
(1S,10R,11S,14R,15S)-14-ethynyl-15-methyltetracyclo[8.7.0.0²,⁷.0¹¹,¹⁵]heptadeca-2(7),3,5-triene-5,14-diol

>  <ALOGPS_LOGP>
3.6300001

>  <JCHEM_LOGP>
3.8973532

>  <ALOGPS_LOGS>
-4.6399999

>  <JCHEM_MASS>
296.40341

>  <JCHEM_MDDR_LIKE_RULE>
0

>  <JCHEM_NUMBER_OF_RINGS>
4

>  <JCHEM_PHYSIOLOGICAL_CHARGE>
0

>  <JCHEM_PKA>
17.594919

>  <JCHEM_PKA_STRONGEST_ACIDIC>
10.327054

>  <JCHEM_PKA_STRONGEST_BASIC>
-1.6637825

>  <JCHEM_POLAR_SURFACE_AREA>
40.459999

>  <JCHEM_REFRACTIVITY>
87.374496

>  <JCHEM_ROTATABLE_BOND_COUNT>
0

>  <JCHEM_RULE_OF_FIVE>
1

>  <ALOGPS_SOLUBILITY>
6.77e-03 g/l

>  <JCHEM_TRADITIONAL_IUPAC>
ethinyl estradiol

>  <JCHEM_VEBER_RULE>
0

>  <DRUGBANK_ID>
DB00977

>  <DRUG_GROUPS>
approved

>  <GENERIC_NAME>
Ethinyl Estradiol

>  <SYNONYMS>
17-ethinyl-3,17-estradiol; 17-ethinyl-3,17-oestradiol; 17-ethinylestradiol; 17alpha-Ethinyl estradiol; Ethinylestradiol; Ethinylestradiolum; Ethinyloestradiol; Ethynyl estradiol; Etinilestradiol

>  <BRANDS>
Estinyl

$$$$
Lomefloxacin
 OpenBabel02121510022D

 25 27  0  0  1  0  0  0  0  0999 V2000
    4.9510   -1.0460    0.0000 F   0  0  0  0  0  0  0  0  0  0  0  0
    3.5220    1.4300    0.0000 F   0  0  0  0  0  0  0  0  0  0  0  0
    6.3930    2.2830    0.0000 O   0  0  0  0  0  0  0  0  0  0  0  0
    8.5790    1.0400    0.0000 O   0  0  0  0  0  0  0  0  0  0  0  0
    7.8600    2.2740    0.0000 O   0  0  0  0  0  0  0  0  0  0  0  0
    3.5220   -0.2200    0.0000 N   0  0  0  0  0  0  0  0  0  0  0  0
    2.0930   -1.0460    0.0000 N   0  0  0  0  0  0  0  0  0  0  0  0
    6.4030   -0.2490    0.0000 N   0  0  0  0  0  0  0  0  0  0  0  0
    2.8080   -1.4580    0.0000 C   0  0  3  0  0  0  0  0  0  0  0  0
    3.5220   -1.0460    0.0000 C   0  0  0  0  0  0  0  0  0  0  0  0
    2.8080    0.1920    0.0000 C   0  0  0  0  0  0  0  0  0  0  0  0
    2.0930   -0.2200    0.0000 C   0  0  0  0  0  0  0  0  0  0  0  0
    4.2360    0.1920    0.0000 C   0  0  0  0  0  0  0  0  0  0  0  0
    2.8080   -2.2830    0.0000 C   0  0  0  0  0  0  0  0  0  0  0  0
    4.9510   -0.2200    0.0000 C   0  0  0  0  0  0  0  0  0  0  0  0
    5.6650    0.1920    0.0000 C   0  0  0  0  0  0  0  0  0  0  0  0
    4.2360    1.0170    0.0000 C   0  0  0  0  0  0  0  0  0  0  0  0
    5.6650    1.0170    0.0000 C   0  0  0  0  0  0  0  0  0  0  0  0
    4.9510    1.4300    0.0000 C   0  0  0  0  0  0  0  0  0  0  0  0
    6.3930   -1.0740    0.0000 C   0  0  0  0  0  0  0  0  0  0  0  0
    6.4030    1.4580    0.0000 C   0  0  0  0  0  0  0  0  0  0  0  0
    7.1500    0.1750    0.0000 C   0  0  0  0  0  0  0  0  0  0  0  0
    7.1500    1.0340    0.0000 C   0  0  0  0  0  0  0  0  0  0  0  0
    7.1030   -1.4950    0.0000 C   0  0  0  0  0  0  0  0  0  0  0  0
    7.8630    1.4490    0.0000 C   0  0  0  0  0  0  0  0  0  0  0  0
  1 15  1  0  0  0  0
  2 17  1  0  0  0  0
  3 21  2  0  0  0  0
  4 25  1  0  0  0  0
  5 25  2  0  0  0  0
  6 10  1  0  0  0  0
  6 11  1  0  0  0  0
  6 13  1  0  0  0  0
  7  9  1  0  0  0  0
  7 12  1  0  0  0  0
  8 16  1  0  0  0  0
  8 20  1  0  0  0  0
  8 22  1  0  0  0  0
  9 10  1  0  0  0  0
  9 14  1  0  0  0  0
 11 12  1  0  0  0  0
 13 15  2  0  0  0  0
 13 17  1  0  0  0  0
 15 16  1  0  0  0  0
 16 18  2  0  0  0  0
 17 19  2  0  0  0  0
 18 19  1  0  0  0  0
 18 21  1  0  0  0  0
 20 24  1  0  0  0  0
 21 23  1  0  0  0  0
 22 23  2  0  0  0  0
 23 25  1  0  0  0  0
M  END
>  <DATABASE_ID>
DB00978

>  <DATABASE_NAME>
drugbank

>  <SMILES>
Fc1c2N(C=C(C(O)=O)C(=O)c2cc(F)c1N1CC(NCC1)C)CC

>  <INCHI_IDENTIFIER>
InChI=1S/C17H19F2N3O3/c1-3-21-8-11(17(24)25)16(23)10-6-12(18)15(13(19)14(10)21)22-5-4-20-9(2)7-22/h6,8-9,20H,3-5,7H2,1-2H3,(H,24,25)

>  <INCHI_KEY>
InChIKey=ZEKZLJVOYLTDKK-UHFFFAOYSA-N

>  <JCHEM_ACCEPTOR_COUNT>
6

>  <JCHEM_AVERAGE_POLARIZABILITY>
34.797218

>  <JCHEM_BIOAVAILABILITY>
1

>  <JCHEM_DONOR_COUNT>
2

>  <JCHEM_EXACT_MASS>
351.13943

>  <JCHEM_FORMAL_CHARGE>
0

>  <JCHEM_FORMULA>
C17H19F2N3O3

>  <JCHEM_GHOSE_FILTER>
1

>  <JCHEM_IUPAC>
1-ethyl-6,8-difluoro-7-(3-methylpiperazin-1-yl)-4-oxo-1,4-dihydroquinoline-3-carboxylic acid

>  <ALOGPS_LOGP>
-0

>  <JCHEM_LOGP>
-0.3897759

>  <ALOGPS_LOGS>
-3.52

>  <JCHEM_MASS>
351.3479

>  <JCHEM_MDDR_LIKE_RULE>
0

>  <JCHEM_NUMBER_OF_RINGS>
3

>  <JCHEM_PHYSIOLOGICAL_CHARGE>
0

>  <JCHEM_PKA_STRONGEST_ACIDIC>
5.6432548

>  <JCHEM_PKA_STRONGEST_BASIC>
8.6966219

>  <JCHEM_POLAR_SURFACE_AREA>
72.879997

>  <JCHEM_REFRACTIVITY>
90.112

>  <JCHEM_ROTATABLE_BOND_COUNT>
3

>  <JCHEM_RULE_OF_FIVE>
1

>  <ALOGPS_SOLUBILITY>
1.06e-01 g/l

>  <JCHEM_TRADITIONAL_IUPAC>
lomefloxacin

>  <JCHEM_VEBER_RULE>
0

>  <DRUGBANK_ID>
DB00978

>  <DRUG_GROUPS>
approved

>  <GENERIC_NAME>
Lomefloxacin

>  <SYNONYMS>
LFLX; Lomefloxacine; Lomefloxacino; Lomefloxacinum

>  <BRANDS>
Bareon; Maxaquin

>  <SALTS>
Lomefloxacin hydrochloride

$$$$
Ramelteon
 OpenBabel02121510022D

 19 21  0  0  1  0  0  0  0  0999 V2000
    2.1320    3.1620    0.0000 O   0  0  0  0  0  0  0  0  0  0  0  0
    4.0170   -2.0950    0.0000 O   0  0  0  0  0  0  0  0  0  0  0  0
    2.9540   -1.1410    0.0000 N   0  0  0  0  0  0  0  0  0  0  0  0
    3.7990    0.8710    0.0000 C   0  0  1  0  0  0  0  0  0  0  0  0
    3.6270    1.6730    0.0000 C   0  0  0  0  0  0  0  0  0  0  0  0
    4.6150    0.7860    0.0000 C   0  0  0  0  0  0  0  0  0  0  0  0
    4.9490    1.5350    0.0000 C   0  0  0  0  0  0  0  0  0  0  0  0
    4.3410    2.0860    0.0000 C   0  0  0  0  0  0  0  0  0  0  0  0
    3.2480    0.2570    0.0000 C   0  0  0  0  0  0  0  0  0  0  0  0
    2.9120    2.0860    0.0000 C   0  0  0  0  0  0  0  0  0  0  0  0
    2.1320    1.8340    0.0000 C   0  0  0  0  0  0  0  0  0  0  0  0
    2.9120    2.9110    0.0000 C   0  0  0  0  0  0  0  0  0  0  0  0
    4.3410    2.9110    0.0000 C   0  0  0  0  0  0  0  0  0  0  0  0
    3.5050   -0.5270    0.0000 C   0  0  0  0  0  0  0  0  0  0  0  0
    1.6500    2.4980    0.0000 C   0  0  0  0  0  0  0  0  0  0  0  0
    3.6270    3.3230    0.0000 C   0  0  0  0  0  0  0  0  0  0  0  0
    3.2100   -1.9250    0.0000 C   0  0  0  0  0  0  0  0  0  0  0  0
    2.6590   -2.5390    0.0000 C   0  0  0  0  0  0  0  0  0  0  0  0
    2.9150   -3.3230    0.0000 C   0  0  0  0  0  0  0  0  0  0  0  0
  1 12  1  0  0  0  0
  1 15  1  0  0  0  0
  2 17  2  0  0  0  0
  3 14  1  0  0  0  0
  3 17  1  0  0  0  0
  4  5  1  0  0  0  0
  4  6  1  0  0  0  0
  4  9  1  1  0  0  0
  5  8  1  0  0  0  0
  5 10  2  0  0  0  0
  6  7  1  0  0  0  0
  7  8  1  0  0  0  0
  8 13  2  0  0  0  0
  9 14  1  0  0  0  0
 10 11  1  0  0  0  0
 10 12  1  0  0  0  0
 11 15  1  0  0  0  0
 12 16  2  0  0  0  0
 13 16  1  0  0  0  0
 17 18  1  0  0  0  0
 18 19  1  0  0  0  0
M  END
>  <DATABASE_ID>
DB00980

>  <DATABASE_NAME>
drugbank

>  <SMILES>
O1CCc2c3c(CC[C@H]3CCNC(=O)CC)ccc12

>  <INCHI_IDENTIFIER>
InChI=1S/C16H21NO2/c1-2-15(18)17-9-7-12-4-3-11-5-6-14-13(16(11)12)8-10-19-14/h5-6,12H,2-4,7-10H2,1H3,(H,17,18)/t12-/m0/s1

>  <INCHI_KEY>
InChIKey=YLXDSYKOBKBWJQ-LBPRGKRZSA-N

>  <JCHEM_ACCEPTOR_COUNT>
2

>  <JCHEM_AVERAGE_POLARIZABILITY>
29.990198

>  <JCHEM_BIOAVAILABILITY>
1

>  <JCHEM_DONOR_COUNT>
1

>  <JCHEM_EXACT_MASS>
259.15723

>  <JCHEM_FORMAL_CHARGE>
0

>  <JCHEM_FORMULA>
C16H21NO2

>  <JCHEM_GHOSE_FILTER>
1

>  <JCHEM_IUPAC>
N-{2-[(8S)-1H,2H,6H,7H,8H-indeno[5,4-b]furan-8-yl]ethyl}propanamide

>  <ALOGPS_LOGP>
3.03

>  <JCHEM_LOGP>
2.5705583

>  <ALOGPS_LOGS>
-4.1999998

>  <JCHEM_MASS>
259.34341

>  <JCHEM_MDDR_LIKE_RULE>
0

>  <JCHEM_NUMBER_OF_RINGS>
3

>  <JCHEM_PHYSIOLOGICAL_CHARGE>
0

>  <JCHEM_PKA_STRONGEST_ACIDIC>
15.82243

>  <JCHEM_PKA_STRONGEST_BASIC>
-0.40319386

>  <JCHEM_POLAR_SURFACE_AREA>
38.330002

>  <JCHEM_REFRACTIVITY>
75.518501

>  <JCHEM_ROTATABLE_BOND_COUNT>
4

>  <JCHEM_RULE_OF_FIVE>
1

>  <ALOGPS_SOLUBILITY>
1.64e-02 g/l

>  <JCHEM_TRADITIONAL_IUPAC>
ramelteon

>  <JCHEM_VEBER_RULE>
1

>  <DRUGBANK_ID>
DB00980

>  <DRUG_GROUPS>
approved; investigational

>  <GENERIC_NAME>
Ramelteon

$$$$
Isotretinoin
 OpenBabel02121510022D

 22 22  0  0  0  0  0  0  0  0999 V2000
    0.0000    0.8250    0.0000 C   0  0  0  0  0  0  0  0  0  0  0  0
   -0.7140    0.4120    0.0000 C   0  0  0  0  0  0  0  0  0  0  0  0
    0.7140    0.4120    0.0000 C   0  0  0  0  0  0  0  0  0  0  0  0
    0.7140   -0.4120    0.0000 C   0  0  0  0  0  0  0  0  0  0  0  0
    0.0000   -0.8250    0.0000 C   0  0  0  0  0  0  0  0  0  0  0  0
   -0.7140   -0.4120    0.0000 C   0  0  0  0  0  0  0  0  0  0  0  0
    6.4300    0.4120    0.0000 C   0  0  0  0  0  0  0  0  0  0  0  0
    5.7160    0.8250    0.0000 C   0  0  0  0  0  0  0  0  0  0  0  0
    5.0010    0.4120    0.0000 C   0  0  0  0  0  0  0  0  0  0  0  0
    4.2870    0.8250    0.0000 C   0  0  0  0  0  0  0  0  0  0  0  0
    3.5720    0.4120    0.0000 C   0  0  0  0  0  0  0  0  0  0  0  0
    2.8580    0.8250    0.0000 C   0  0  0  0  0  0  0  0  0  0  0  0
    1.4290    0.8250    0.0000 C   0  0  0  0  0  0  0  0  0  0  0  0
    5.7160    1.6500    0.0000 C   0  0  0  0  0  0  0  0  0  0  0  0
    2.8580    1.6500    0.0000 C   0  0  0  0  0  0  0  0  0  0  0  0
    0.4120    1.5400    0.0000 C   0  0  0  0  0  0  0  0  0  0  0  0
   -0.4120    1.5400    0.0000 C   0  0  0  0  0  0  0  0  0  0  0  0
    2.1430    0.4120    0.0000 C   0  0  0  0  0  0  0  0  0  0  0  0
    1.4290   -0.8250    0.0000 C   0  0  0  0  0  0  0  0  0  0  0  0
    6.4300   -0.4120    0.0000 C   0  0  0  0  0  0  0  0  0  0  0  0
    5.7160   -0.8250    0.0000 O   0  0  0  0  0  0  0  0  0  0  0  0
    7.1450   -0.8250    0.0000 O   0  0  0  0  0  0  0  0  0  0  0  0
  1  2  1  0  0  0  0
  1  3  1  0  0  0  0
  1 16  1  0  0  0  0
  1 17  1  0  0  0  0
  2  6  1  0  0  0  0
  3  4  2  0  0  0  0
  3 13  1  0  0  0  0
  4  5  1  0  0  0  0
  4 19  1  0  0  0  0
  5  6  1  0  0  0  0
  7  8  2  0  0  0  0
  7 20  1  0  0  0  0
  8  9  1  0  0  0  0
  8 14  1  0  0  0  0
  9 10  2  0  0  0  0
 10 11  1  0  0  0  0
 11 12  2  0  0  0  0
 12 15  1  0  0  0  0
 12 18  1  0  0  0  0
 13 18  2  0  0  0  0
 20 21  2  0  0  0  0
 20 22  1  0  0  0  0
M  END
>  <DATABASE_ID>
DB00982

>  <DATABASE_NAME>
drugbank

>  <SMILES>
OC(=O)\C=C(/C=C/C=C(\C=C\C=1C(CCCC=1C)(C)C)/C)\C

>  <INCHI_IDENTIFIER>
InChI=1S/C20H28O2/c1-15(8-6-9-16(2)14-19(21)22)11-12-18-17(3)10-7-13-20(18,4)5/h6,8-9,11-12,14H,7,10,13H2,1-5H3,(H,21,22)/b9-6+,12-11+,15-8+,16-14-

>  <INCHI_KEY>
InChIKey=SHGAZHPCJJPHSC-XFYACQKRSA-N

>  <JCHEM_ACCEPTOR_COUNT>
2

>  <JCHEM_AVERAGE_POLARIZABILITY>
36.147964

>  <JCHEM_BIOAVAILABILITY>
1

>  <JCHEM_DONOR_COUNT>
1

>  <JCHEM_EXACT_MASS>
300.20892

>  <JCHEM_FORMAL_CHARGE>
0

>  <JCHEM_FORMULA>
C20H28O2

>  <JCHEM_GHOSE_FILTER>
1

>  <JCHEM_IUPAC>
(2Z,4E,6E,8E)-3,7-dimethyl-9-(2,6,6-trimethylcyclohex-1-en-1-yl)nona-2,4,6,8-tetraenoic acid

>  <ALOGPS_LOGP>
5.6599998

>  <JCHEM_LOGP>
5.0143676

>  <ALOGPS_LOGS>
-4.8000002

>  <JCHEM_MASS>
300.43509

>  <JCHEM_MDDR_LIKE_RULE>
0

>  <JCHEM_NUMBER_OF_RINGS>
1

>  <JCHEM_PHYSIOLOGICAL_CHARGE>
-1

>  <JCHEM_PKA_STRONGEST_ACIDIC>
4.9966478

>  <JCHEM_POLAR_SURFACE_AREA>
37.299999

>  <JCHEM_REFRACTIVITY>
97.790802

>  <JCHEM_ROTATABLE_BOND_COUNT>
5

>  <JCHEM_RULE_OF_FIVE>
0

>  <ALOGPS_SOLUBILITY>
4.77e-03 g/l

>  <JCHEM_TRADITIONAL_IUPAC>
accutane

>  <JCHEM_VEBER_RULE>
1

>  <DRUGBANK_ID>
DB00982

>  <DRUG_GROUPS>
approved

>  <GENERIC_NAME>
Isotretinoin

>  <BRANDS>
Absorica; Myorisan; ZENATANE

$$$$
Dimenhydrinate
 OpenBabel02121510022D

 33 35  0  0  0  0  0  0  0  0999 V2000
   20.7460   -9.1720    0.0000 C   0  0  0  0  0  0  0  0  0  0  0  0
   20.7460  -10.0150    0.0000 C   0  0  0  0  0  0  0  0  0  0  0  0
   21.4540   -8.7540    0.0000 C   0  0  0  0  0  0  0  0  0  0  0  0
   19.9720   -8.9160    0.0000 N   0  5  0  0  0  0  0  0  0  0  0  0
   21.4540  -10.4190    0.0000 N   0  0  0  0  0  0  0  0  0  0  0  0
   19.9720  -10.2700    0.0000 N   0  0  0  0  0  0  0  0  0  0  0  0
   22.1760   -9.1890    0.0000 N   0  0  0  0  0  0  0  0  0  0  0  0
   21.4540   -7.9380    0.0000 O   0  0  0  0  0  0  0  0  0  0  0  0
   19.4920   -9.6000    0.0000 C   0  0  0  0  0  0  0  0  0  0  0  0
   22.1760   -9.9840    0.0000 C   0  0  0  0  0  0  0  0  0  0  0  0
   21.4540  -11.2660    0.0000 C   0  0  0  0  0  0  0  0  0  0  0  0
   22.9160   -8.7880    0.0000 C   0  0  0  0  0  0  0  0  0  0  0  0
   18.6630   -9.6040    0.0000 Cl  0  0  0  0  0  0  0  0  0  0  0  0
   22.9160  -10.3980    0.0000 O   0  0  0  0  0  0  0  0  0  0  0  0
   14.3450   -9.7530    0.0000 C   0  0  0  0  0  0  0  0  0  0  0  0
   13.6300  -10.1710    0.0000 C   0  0  0  0  0  0  0  0  0  0  0  0
   15.0640  -10.1710    0.0000 C   0  0  0  0  0  0  0  0  0  0  0  0
   14.3480   -8.9270    0.0000 O   0  0  0  0  0  0  0  0  0  0  0  0
   13.6300  -10.9930    0.0000 C   0  0  0  0  0  0  0  0  0  0  0  0
   12.9150   -9.7530    0.0000 C   0  0  0  0  0  0  0  0  0  0  0  0
   15.0600  -10.9930    0.0000 C   0  0  0  0  0  0  0  0  0  0  0  0
   15.7760   -9.7530    0.0000 C   0  0  0  0  0  0  0  0  0  0  0  0
   15.0640   -8.5120    0.0000 C   0  0  0  0  0  0  0  0  0  0  0  0
   12.9150  -11.4040    0.0000 C   0  0  0  0  0  0  0  0  0  0  0  0
   12.2000  -10.1710    0.0000 C   0  0  0  0  0  0  0  0  0  0  0  0
   15.7760  -11.4040    0.0000 C   0  0  0  0  0  0  0  0  0  0  0  0
   16.4910  -10.1710    0.0000 C   0  0  0  0  0  0  0  0  0  0  0  0
   12.2000  -10.9930    0.0000 C   0  0  0  0  0  0  0  0  0  0  0  0
   16.4870  -10.9930    0.0000 C   0  0  0  0  0  0  0  0  0  0  0  0
   15.7740   -8.9220    0.0000 C   0  0  0  0  0  0  0  0  0  0  0  0
   16.4710   -8.5180    0.0000 N   0  3  0  0  0  0  0  0  0  0  0  0
   17.1780   -8.9260    0.0000 C   0  0  0  0  0  0  0  0  0  0  0  0
   16.4710   -7.6920    0.0000 C   0  0  0  0  0  0  0  0  0  0  0  0
  1  2  2  0  0  0  0
  1  3  1  0  0  0  0
  1  4  1  0  0  0  0
  2  5  1  0  0  0  0
  2  6  1  0  0  0  0
  3  7  1  0  0  0  0
  3  8  2  0  0  0  0
  4  9  1  0  0  0  0
  5 10  1  0  0  0  0
  5 11  1  0  0  0  0
  6  9  2  0  0  0  0
  7 10  1  0  0  0  0
  7 12  1  0  0  0  0
  9 13  1  0  0  0  0
 10 14  2  0  0  0  0
 15 16  1  0  0  0  0
 15 17  1  0  0  0  0
 15 18  1  0  0  0  0
 16 19  2  0  0  0  0
 16 20  1  0  0  0  0
 17 21  2  0  0  0  0
 17 22  1  0  0  0  0
 18 23  1  0  0  0  0
 19 24  1  0  0  0  0
 20 25  2  0  0  0  0
 21 26  1  0  0  0  0
 22 27  2  0  0  0  0
 23 30  1  0  0  0  0
 24 28  2  0  0  0  0
 25 28  1  0  0  0  0
 26 29  2  0  0  0  0
 27 29  1  0  0  0  0
 30 31  1  0  0  0  0
 31 32  1  0  0  0  0
 31 33  1  0  0  0  0
M  CHG  2   4  -1  31   1
M  END
>  <DATABASE_ID>
DB00985

>  <DATABASE_NAME>
drugbank

>  <SMILES>
Clc1nc2N(C)C(=O)N(C)C(=O)c2[n-]1.O(C(c1ccccc1)c1ccccc1)CC[NH+](C)C

>  <INCHI_IDENTIFIER>
InChI=1S/C17H21NO.C7H7ClN4O2/c1-18(2)13-14-19-17(15-9-5-3-6-10-15)16-11-7-4-8-12-16;1-11-4-3(9-6(8)10-4)5(13)12(2)7(11)14/h3-12,17H,13-14H2,1-2H3;1-2H3,(H,9,10,13)

>  <INCHI_KEY>
InChIKey=DKHVTDUUNTVKOW-UHFFFAOYSA-N

>  <JCHEM_ACCEPTOR_COUNT>
1

>  <JCHEM_AVERAGE_POLARIZABILITY>
30.276146

>  <JCHEM_BIOAVAILABILITY>
1

>  <JCHEM_DONOR_COUNT>
1

>  <JCHEM_EXACT_MASS>
469.18808

>  <JCHEM_FORMAL_CHARGE>
0

>  <JCHEM_FORMULA>
C24H28ClN5O3

>  <JCHEM_GHOSE_FILTER>
1

>  <JCHEM_IUPAC>
8-chloro-1,3-dimethyl-2,6-dioxo-2,3,6,7-tetrahydro-1H-purin-7-ide; [2-(diphenylmethoxy)ethyl]dimethylazanium

>  <ALOGPS_LOGP>
2.6700001

>  <JCHEM_LOGP>
3.6519072

>  <ALOGPS_LOGS>
-5.5700002

>  <JCHEM_MASS>
469.96399

>  <JCHEM_MDDR_LIKE_RULE>
1

>  <JCHEM_NUMBER_OF_RINGS>
4

>  <JCHEM_PHYSIOLOGICAL_CHARGE>
1

>  <JCHEM_PKA_STRONGEST_BASIC>
8.8670874

>  <JCHEM_POLAR_SURFACE_AREA>
13.67

>  <JCHEM_REFRACTIVITY>
90.943901

>  <JCHEM_ROTATABLE_BOND_COUNT>
6

>  <JCHEM_RULE_OF_FIVE>
1

>  <ALOGPS_SOLUBILITY>
1.25e-03 g/l

>  <JCHEM_TRADITIONAL_IUPAC>
8-chloro-1,3-dimethyl-2,6-dioxo-7H-purin-7-ide; [2-(diphenylmethoxy)ethyl]dimethylazanium

>  <JCHEM_VEBER_RULE>
1

>  <DRUGBANK_ID>
DB00985

>  <DRUG_GROUPS>
approved

>  <GENERIC_NAME>
Dimenhydrinate

>  <BRANDS>
Dramamine; Driminate; Gravol; Vertirosan; Vomex A; Xamamina

$$$$
Rivastigmine
 OpenBabel02121510022D

 18 18  0  0  1  0  0  0  0  0999 V2000
    3.0790   -0.6190    0.0000 O   0  0  0  0  0  0  0  0  0  0  0  0
    3.7940   -1.8560    0.0000 O   0  0  0  0  0  0  0  0  0  0  0  0
    5.2220    2.2690    0.0000 N   0  0  0  0  0  0  0  0  0  0  0  0
    2.3640   -1.8560    0.0000 N   0  0  0  0  0  0  0  0  0  0  0  0
    4.5080    1.8560    0.0000 C   0  0  2  0  0  0  0  0  0  0  0  0
    4.5080    1.0310    0.0000 C   0  0  0  0  0  0  0  0  0  0  0  0
    3.7940    2.2690    0.0000 C   0  0  0  0  0  0  0  0  0  0  0  0
    3.7940    0.6190    0.0000 C   0  0  0  0  0  0  0  0  0  0  0  0
    5.2220    0.6190    0.0000 C   0  0  0  0  0  0  0  0  0  0  0  0
    5.2220    3.0940    0.0000 C   0  0  0  0  0  0  0  0  0  0  0  0
    5.9370    1.8560    0.0000 C   0  0  0  0  0  0  0  0  0  0  0  0
    3.7940   -0.2060    0.0000 C   0  0  0  0  0  0  0  0  0  0  0  0
    5.2220   -0.2060    0.0000 C   0  0  0  0  0  0  0  0  0  0  0  0
    4.5080   -0.6190    0.0000 C   0  0  0  0  0  0  0  0  0  0  0  0
    2.3640   -2.6810    0.0000 C   0  0  0  0  0  0  0  0  0  0  0  0
    3.0790   -1.4440    0.0000 C   0  0  0  0  0  0  0  0  0  0  0  0
    1.6500   -1.4440    0.0000 C   0  0  0  0  0  0  0  0  0  0  0  0
    1.6500   -3.0940    0.0000 C   0  0  0  0  0  0  0  0  0  0  0  0
  1 12  1  0  0  0  0
  1 16  1  0  0  0  0
  2 16  2  0  0  0  0
  3 10  1  0  0  0  0
  3 11  1  0  0  0  0
  4 15  1  0  0  0  0
  4 16  1  0  0  0  0
  4 17  1  0  0  0  0
  5  3  1  6  0  0  0
  5  6  1  0  0  0  0
  5  7  1  0  0  0  0
  6  8  2  0  0  0  0
  6  9  1  0  0  0  0
  8 12  1  0  0  0  0
  9 13  2  0  0  0  0
 12 14  2  0  0  0  0
 13 14  1  0  0  0  0
 15 18  1  0  0  0  0
M  END
>  <DATABASE_ID>
DB00989

>  <DATABASE_NAME>
drugbank

>  <SMILES>
O(C(=O)N(CC)C)c1cc(ccc1)[C@@H](N(C)C)C

>  <INCHI_IDENTIFIER>
InChI=1S/C14H22N2O2/c1-6-16(5)14(17)18-13-9-7-8-12(10-13)11(2)15(3)4/h7-11H,6H2,1-5H3/t11-/m0/s1

>  <INCHI_KEY>
InChIKey=XSVMFMHYUFZWBK-NSHDSACASA-N

>  <JCHEM_ACCEPTOR_COUNT>
2

>  <JCHEM_AVERAGE_POLARIZABILITY>
28.533663

>  <JCHEM_BIOAVAILABILITY>
1

>  <JCHEM_DONOR_COUNT>
0

>  <JCHEM_EXACT_MASS>
250.16812

>  <JCHEM_FORMAL_CHARGE>
0

>  <JCHEM_FORMULA>
C14H22N2O2

>  <JCHEM_GHOSE_FILTER>
1

>  <JCHEM_IUPAC>
3-[(1S)-1-(dimethylamino)ethyl]phenyl N-ethyl-N-methylcarbamate

>  <ALOGPS_LOGP>
2.45

>  <JCHEM_LOGP>
2.4090931

>  <ALOGPS_LOGS>
-2.0899999

>  <JCHEM_MASS>
250.3367

>  <JCHEM_MDDR_LIKE_RULE>
0

>  <JCHEM_NUMBER_OF_RINGS>
1

>  <JCHEM_PHYSIOLOGICAL_CHARGE>
1

>  <JCHEM_PKA_STRONGEST_BASIC>
8.8852425

>  <JCHEM_POLAR_SURFACE_AREA>
32.779999

>  <JCHEM_REFRACTIVITY>
73.370598

>  <JCHEM_ROTATABLE_BOND_COUNT>
5

>  <JCHEM_RULE_OF_FIVE>
1

>  <ALOGPS_SOLUBILITY>
2.04e+00 g/l

>  <JCHEM_TRADITIONAL_IUPAC>
rivastigmine

>  <JCHEM_VEBER_RULE>
1

>  <DRUGBANK_ID>
DB00989

>  <DRUG_GROUPS>
approved; investigational

>  <GENERIC_NAME>
Rivastigmine

$$$$
Exemestane
 OpenBabel02121510022D

 25 28  0  0  1  0  0  0  0  0999 V2000
    7.1360    2.1960    0.0000 O   0  0  0  0  0  0  0  0  0  0  0  0
    1.6500   -1.3570    0.0000 O   0  0  0  0  0  0  0  0  0  0  0  0
    6.0990    0.3360    0.0000 C   0  0  1  0  0  0  0  0  0  0  0  0
    5.3850   -0.0770    0.0000 C   0  0  1  0  0  0  0  0  0  0  0  0
    6.0990    1.1610    0.0000 C   0  0  2  0  0  0  0  0  0  0  0  0
    4.6700    0.3360    0.0000 C   0  0  2  0  0  0  0  0  0  0  0  0
    5.3850    1.5730    0.0000 C   0  0  0  0  0  0  0  0  0  0  0  0
    4.6700    1.1610    0.0000 C   0  0  0  0  0  0  0  0  0  0  0  0
    3.9190   -0.0820    0.0000 C   0  0  1  0  0  0  0  0  0  0  0  0
    6.8800    0.0840    0.0000 C   0  0  0  0  0  0  0  0  0  0  0  0
    5.3980   -0.9360    0.0000 C   0  0  0  0  0  0  0  0  0  0  0  0
    6.8800    1.4120    0.0000 C   0  0  0  0  0  0  0  0  0  0  0  0
    7.3610    0.7480    0.0000 C   0  0  0  0  0  0  0  0  0  0  0  0
    6.0990    1.9860    0.0000 C   0  0  0  0  0  0  0  0  0  0  0  0
    3.9130   -0.9420    0.0000 C   0  0  0  0  0  0  0  0  0  0  0  0
    4.6570   -1.3710    0.0000 C   0  0  0  0  0  0  0  0  0  0  0  0
    3.9260    0.7430    0.0000 C   0  0  0  0  0  0  0  0  0  0  0  0
    3.1550    0.3830    0.0000 C   0  0  0  0  0  0  0  0  0  0  0  0
    3.1410   -1.3950    0.0000 C   0  0  0  0  0  0  0  0  0  0  0  0
    2.3730   -0.0530    0.0000 C   0  0  0  0  0  0  0  0  0  0  0  0
    4.6600   -2.1960    0.0000 C   0  0  0  0  0  0  0  0  0  0  0  0
    2.3660   -0.9480    0.0000 C   0  0  0  0  0  0  0  0  0  0  0  0
    6.1690   -0.3200    0.0000 H   0  0  0  0  0  0  0  0  0  0  0  0
    5.9580   -0.4020    0.0000 H   0  0  0  0  0  0  0  0  0  0  0  0
    5.2420    0.6660    0.0000 H   0  0  0  0  0  0  0  0  0  0  0  0
  1 12  2  0  0  0  0
  2 22  2  0  0  0  0
  3  4  1  0  0  0  0
  3  5  1  0  0  0  0
  3 10  1  0  0  0  0
  3 23  1  6  0  0  0
  4  6  1  0  0  0  0
  4 11  1  0  0  0  0
  4 24  1  1  0  0  0
  5  7  1  0  0  0  0
  5 12  1  0  0  0  0
  5 14  1  1  0  0  0
  6  8  1  0  0  0  0
  6  9  1  0  0  0  0
  6 25  1  6  0  0  0
  7  8  1  0  0  0  0
  9 15  1  0  0  0  0
  9 17  1  1  0  0  0
  9 18  1  0  0  0  0
 10 13  1  0  0  0  0
 11 16  1  0  0  0  0
 12 13  1  0  0  0  0
 15 16  1  0  0  0  0
 15 19  2  0  0  0  0
 16 21  2  0  0  0  0
 18 20  2  0  0  0  0
 19 22  1  0  0  0  0
 20 22  1  0  0  0  0
M  END
>  <DATABASE_ID>
DB00990

>  <DATABASE_NAME>
drugbank

>  <SMILES>
O=C1CC[C@H]2[C@H]3[C@H](CC[C@]12C)[C@@]1(C(=CC(=O)C=C1)C(C3)=C)C

>  <INCHI_IDENTIFIER>
InChI=1S/C20H24O2/c1-12-10-14-15-4-5-18(22)20(15,3)9-7-16(14)19(2)8-6-13(21)11-17(12)19/h6,8,11,14-16H,1,4-5,7,9-10H2,2-3H3/t14-,15-,16-,19+,20-/m0/s1

>  <INCHI_KEY>
InChIKey=BFYIZQONLCFLEV-DAELLWKTSA-N

>  <JCHEM_ACCEPTOR_COUNT>
2

>  <JCHEM_AVERAGE_POLARIZABILITY>
33.70631

>  <JCHEM_BIOAVAILABILITY>
1

>  <JCHEM_DONOR_COUNT>
0

>  <JCHEM_EXACT_MASS>
296.17764

>  <JCHEM_FORMAL_CHARGE>
0

>  <JCHEM_FORMULA>
C20H24O2

>  <JCHEM_GHOSE_FILTER>
1

>  <JCHEM_IUPAC>
(1S,2R,10R,11S,15S)-2,15-dimethyl-8-methylidenetetracyclo[8.7.0.0^{2,7}.0^{11,15}]heptadeca-3,6-diene-5,14-dione

>  <ALOGPS_LOGP>
2.6700001

>  <JCHEM_LOGP>
3.8661478

>  <ALOGPS_LOGS>
-4.6399999

>  <JCHEM_MASS>
296.40341

>  <JCHEM_MDDR_LIKE_RULE>
0

>  <JCHEM_NUMBER_OF_RINGS>
4

>  <JCHEM_PHYSIOLOGICAL_CHARGE>
0

>  <JCHEM_PKA_STRONGEST_ACIDIC>
19.957294

>  <JCHEM_PKA_STRONGEST_BASIC>
-5.0415931

>  <JCHEM_POLAR_SURFACE_AREA>
34.139999

>  <JCHEM_REFRACTIVITY>
89.026901

>  <JCHEM_ROTATABLE_BOND_COUNT>
0

>  <JCHEM_RULE_OF_FIVE>
1

>  <ALOGPS_SOLUBILITY>
6.83e-03 g/l

>  <JCHEM_TRADITIONAL_IUPAC>
exemestane

>  <JCHEM_VEBER_RULE>
1

>  <DRUGBANK_ID>
DB00990

>  <DRUG_GROUPS>
approved; investigational

>  <GENERIC_NAME>
Exemestane

>  <SYNONYMS>
Exemestano; Exemestanum

$$$$
Oxaprozin
 OpenBabel02121510022D

 22 24  0  0  0  0  0  0  0  0999 V2000
    3.9300    0.2440    0.0000 O   0  0  0  0  0  0  0  0  0  0  0  0
    2.8060    3.0860    0.0000 O   0  0  0  0  0  0  0  0  0  0  0  0
    1.6500    2.2470    0.0000 O   0  0  0  0  0  0  0  0  0  0  0  0
    2.8500   -0.5400    0.0000 N   0  0  0  0  0  0  0  0  0  0  0  0
    4.1850   -0.5400    0.0000 C   0  0  0  0  0  0  0  0  0  0  0  0
    3.5170   -1.0250    0.0000 C   0  0  0  0  0  0  0  0  0  0  0  0
    3.1050    0.2440    0.0000 C   0  0  0  0  0  0  0  0  0  0  0  0
    2.6200    0.9120    0.0000 C   0  0  0  0  0  0  0  0  0  0  0  0
    4.9690   -0.7950    0.0000 C   0  0  0  0  0  0  0  0  0  0  0  0
    3.5170   -1.8500    0.0000 C   0  0  0  0  0  0  0  0  0  0  0  0
    2.9550    1.6650    0.0000 C   0  0  0  0  0  0  0  0  0  0  0  0
    5.5820   -0.2430    0.0000 C   0  0  0  0  0  0  0  0  0  0  0  0
    5.1410   -1.6020    0.0000 C   0  0  0  0  0  0  0  0  0  0  0  0
    4.2320   -2.2630    0.0000 C   0  0  0  0  0  0  0  0  0  0  0  0
    2.8030   -2.2630    0.0000 C   0  0  0  0  0  0  0  0  0  0  0  0
    6.3670   -0.4980    0.0000 C   0  0  0  0  0  0  0  0  0  0  0  0
    5.9260   -1.8570    0.0000 C   0  0  0  0  0  0  0  0  0  0  0  0
    4.2320   -3.0880    0.0000 C   0  0  0  0  0  0  0  0  0  0  0  0
    2.8030   -3.0880    0.0000 C   0  0  0  0  0  0  0  0  0  0  0  0
    2.4700    2.3330    0.0000 C   0  0  0  0  0  0  0  0  0  0  0  0
    6.5390   -1.3050    0.0000 C   0  0  0  0  0  0  0  0  0  0  0  0
    3.5170   -3.5000    0.0000 C   0  0  0  0  0  0  0  0  0  0  0  0
  1  5  1  0  0  0  0
  1  7  1  0  0  0  0
  2 20  1  0  0  0  0
  3 20  2  0  0  0  0
  4  6  1  0  0  0  0
  4  7  2  0  0  0  0
  5  6  2  0  0  0  0
  5  9  1  0  0  0  0
  6 10  1  0  0  0  0
  7  8  1  0  0  0  0
  8 11  1  0  0  0  0
  9 12  2  0  0  0  0
  9 13  1  0  0  0  0
 10 14  2  0  0  0  0
 10 15  1  0  0  0  0
 11 20  1  0  0  0  0
 12 16  1  0  0  0  0
 13 17  2  0  0  0  0
 14 18  1  0  0  0  0
 15 19  2  0  0  0  0
 16 21  2  0  0  0  0
 17 21  1  0  0  0  0
 18 22  2  0  0  0  0
 19 22  1  0  0  0  0
M  END
>  <DATABASE_ID>
DB00991

>  <DATABASE_NAME>
drugbank

>  <SMILES>
o1c(c(nc1CCC(O)=O)-c1ccccc1)-c1ccccc1

>  <INCHI_IDENTIFIER>
InChI=1S/C18H15NO3/c20-16(21)12-11-15-19-17(13-7-3-1-4-8-13)18(22-15)14-9-5-2-6-10-14/h1-10H,11-12H2,(H,20,21)

>  <INCHI_KEY>
InChIKey=OFPXSFXSNFPTHF-UHFFFAOYSA-N

>  <JCHEM_ACCEPTOR_COUNT>
3

>  <JCHEM_AVERAGE_POLARIZABILITY>
31.689302

>  <JCHEM_BIOAVAILABILITY>
1

>  <JCHEM_DONOR_COUNT>
1

>  <JCHEM_EXACT_MASS>
293.10519

>  <JCHEM_FORMAL_CHARGE>
0

>  <JCHEM_FORMULA>
C18H15NO3

>  <JCHEM_GHOSE_FILTER>
1

>  <JCHEM_IUPAC>
3-(diphenyl-1,3-oxazol-2-yl)propanoic acid

>  <ALOGPS_LOGP>
3.3299999

>  <JCHEM_LOGP>
3.4633667

>  <ALOGPS_LOGS>
-3.96

>  <JCHEM_MASS>
293.31659

>  <JCHEM_MDDR_LIKE_RULE>
0

>  <JCHEM_NUMBER_OF_RINGS>
3

>  <JCHEM_PHYSIOLOGICAL_CHARGE>
-1

>  <JCHEM_PKA_STRONGEST_ACIDIC>
4.9539366

>  <JCHEM_PKA_STRONGEST_BASIC>
-0.58801693

>  <JCHEM_POLAR_SURFACE_AREA>
63.330002

>  <JCHEM_REFRACTIVITY>
81.879303

>  <JCHEM_ROTATABLE_BOND_COUNT>
5

>  <JCHEM_RULE_OF_FIVE>
1

>  <ALOGPS_SOLUBILITY>
3.25e-02 g/l

>  <JCHEM_TRADITIONAL_IUPAC>
oxaprozin

>  <JCHEM_VEBER_RULE>
0

>  <DRUGBANK_ID>
DB00991

>  <DRUG_GROUPS>
approved

>  <GENERIC_NAME>
Oxaprozin

>  <SYNONYMS>
Oxaprozina; Oxaprozine; Oxaprozinum

>  <BRANDS>
Alvo; Daypro; Daypro Alta

$$$$
Azathioprine
 OpenBabel02121510022D

 19 21  0  0  0  0  0  0  0  0999 V2000
    3.6700   -0.0580    0.0000 S   0  0  0  0  0  0  0  0  0  0  0  0
    3.3110    2.5340    0.0000 O   0  5  0  0  0  0  0  0  0  0  0  0
    4.2670    1.4720    0.0000 O   0  0  0  0  0  0  0  0  0  0  0  0
    2.2020    0.0180    0.0000 N   0  0  0  0  0  0  0  0  0  0  0  0
    5.1650   -1.0450    0.0000 N   0  0  0  0  0  0  0  0  0  0  0  0
    2.0620    1.3460    0.0000 N   0  0  0  0  0  0  0  0  0  0  0  0
    2.9560   -1.2960    0.0000 N   0  0  0  0  0  0  0  0  0  0  0  0
    5.1650   -2.3720    0.0000 N   0  0  0  0  0  0  0  0  0  0  0  0
    3.4830    1.7270    0.0000 N   0  3  0  0  0  0  0  0  0  0  0  0
    3.6700   -2.5340    0.0000 N   0  0  0  0  0  0  0  0  0  0  0  0
    2.9560    0.3540    0.0000 C   0  0  0  0  0  0  0  0  0  0  0  0
    4.3850   -1.2960    0.0000 C   0  0  0  0  0  0  0  0  0  0  0  0
    3.6700   -0.8840    0.0000 C   0  0  0  0  0  0  0  0  0  0  0  0
    2.8700    1.1740    0.0000 C   0  0  0  0  0  0  0  0  0  0  0  0
    1.6500    0.6320    0.0000 C   0  0  0  0  0  0  0  0  0  0  0  0
    4.3850   -2.1210    0.0000 C   0  0  0  0  0  0  0  0  0  0  0  0
    2.0300   -0.7890    0.0000 C   0  0  0  0  0  0  0  0  0  0  0  0
    5.6470   -1.7080    0.0000 C   0  0  0  0  0  0  0  0  0  0  0  0
    2.9560   -2.1210    0.0000 C   0  0  0  0  0  0  0  0  0  0  0  0
  1 11  1  0  0  0  0
  1 13  1  0  0  0  0
  2  9  1  0  0  0  0
  3  9  2  0  0  0  0
  4 11  1  0  0  0  0
  4 15  1  0  0  0  0
  4 17  1  0  0  0  0
  5 12  1  0  0  0  0
  5 18  1  0  0  0  0
  6 14  1  0  0  0  0
  6 15  2  0  0  0  0
  7 13  2  0  0  0  0
  7 19  1  0  0  0  0
  8 16  1  0  0  0  0
  8 18  2  0  0  0  0
  9 14  1  0  0  0  0
 10 16  1  0  0  0  0
 10 19  2  0  0  0  0
 11 14  2  0  0  0  0
 12 13  1  0  0  0  0
 12 16  2  0  0  0  0
M  CHG  2   2  -1   9   1
M  END
>  <DATABASE_ID>
DB00993

>  <DATABASE_NAME>
drugbank

>  <SMILES>
S(c1n(cnc1[N+](=O)[O-])C)c1ncnc2nc[nH]c12

>  <INCHI_IDENTIFIER>
InChI=1S/C9H7N7O2S/c1-15-4-14-7(16(17)18)9(15)19-8-5-6(11-2-10-5)12-3-13-8/h2-4H,1H3,(H,10,11,12,13)

>  <INCHI_KEY>
InChIKey=LMEKQMALGUDUQG-UHFFFAOYSA-N

>  <JCHEM_ACCEPTOR_COUNT>
6

>  <JCHEM_AVERAGE_POLARIZABILITY>
24.258831

>  <JCHEM_BIOAVAILABILITY>
1

>  <JCHEM_DONOR_COUNT>
1

>  <JCHEM_EXACT_MASS>
277.03821

>  <JCHEM_FORMAL_CHARGE>
0

>  <JCHEM_FORMULA>
C9H7N7O2S

>  <JCHEM_GHOSE_FILTER>
1

>  <JCHEM_IUPAC>
6-[(1-methyl-4-nitro-1H-imidazol-5-yl)sulfanyl]-7H-purine

>  <ALOGPS_LOGP>
0.83999997

>  <JCHEM_LOGP>
1.173144

>  <ALOGPS_LOGS>
-2.4100001

>  <JCHEM_MASS>
277.263

>  <JCHEM_MDDR_LIKE_RULE>
0

>  <JCHEM_NUMBER_OF_RINGS>
3

>  <JCHEM_PHYSIOLOGICAL_CHARGE>
0

>  <JCHEM_PKA_STRONGEST_ACIDIC>
8.6451149

>  <JCHEM_PKA_STRONGEST_BASIC>
4.0031571

>  <JCHEM_POLAR_SURFACE_AREA>
118.1

>  <JCHEM_REFRACTIVITY>
70.946198

>  <JCHEM_ROTATABLE_BOND_COUNT>
3

>  <JCHEM_RULE_OF_FIVE>
1

>  <ALOGPS_SOLUBILITY>
1.07e+00 g/l

>  <JCHEM_TRADITIONAL_IUPAC>
azathioprine

>  <JCHEM_VEBER_RULE>
0

>  <DRUGBANK_ID>
DB00993

>  <DRUG_GROUPS>
approved

>  <GENERIC_NAME>
Azathioprine

>  <BRANDS>
Azamun; Azanin; Azasan; Imuran; Imurek; Imurel

>  <SALTS>
Azathioprine Sodium

$$$$
Auranofin
 OpenBabel02121510022D

 32 32  0  0  1  0  0  0  0  0999 V2000
   12.4870  -11.0730    0.0000 C   0  0  2  0  0  0  0  0  0  0  0  0
   13.2000  -10.6580    0.0000 C   0  0  2  0  0  0  0  0  0  0  0  0
   11.7700  -10.6580    0.0000 C   0  0  1  0  0  0  0  0  0  0  0  0
   13.2000   -9.8310    0.0000 C   0  0  1  0  0  0  0  0  0  0  0  0
   13.9140  -11.0730    0.0000 O   0  0  0  0  0  0  0  0  0  0  0  0
   11.7700   -9.8310    0.0000 C   0  0  2  0  0  0  0  0  0  0  0  0
   11.0570  -11.0730    0.0000 O   0  0  0  0  0  0  0  0  0  0  0  0
   12.4870   -9.4230    0.0000 O   0  0  0  0  0  0  0  0  0  0  0  0
   13.9100   -9.4200    0.0000 S   0  0  0  0  0  0  0  0  0  0  0  0
   11.0530   -9.4230    0.0000 C   0  0  0  0  0  0  0  0  0  0  0  0
   13.9040   -8.5930    0.0000 Au  0  5  0  0  0  0  0  0  0  0  0  0
   12.4880  -11.8980    0.0000 O   0  0  0  0  0  0  0  0  0  0  0  0
   11.0550   -8.5980    0.0000 O   0  0  0  0  0  0  0  0  0  0  0  0
   10.3400   -8.1850    0.0000 C   0  0  0  0  0  0  0  0  0  0  0  0
   10.3400   -7.3600    0.0000 O   0  0  0  0  0  0  0  0  0  0  0  0
    9.6260   -8.5980    0.0000 C   0  0  0  0  0  0  0  0  0  0  0  0
   10.3410  -10.6630    0.0000 C   0  0  0  0  0  0  0  0  0  0  0  0
    9.6280  -11.0770    0.0000 C   0  0  0  0  0  0  0  0  0  0  0  0
   10.3410   -9.8380    0.0000 O   0  0  0  0  0  0  0  0  0  0  0  0
   11.7740  -12.3110    0.0000 C   0  0  0  0  0  0  0  0  0  0  0  0
   11.0590  -11.8980    0.0000 C   0  0  0  0  0  0  0  0  0  0  0  0
   11.7740  -13.1360    0.0000 O   0  0  0  0  0  0  0  0  0  0  0  0
   14.6180   -8.1800    0.0000 P   0  3  0  0  0  0  0  0  0  0  0  0
   15.3320   -8.5930    0.0000 C   0  0  0  0  0  0  0  0  0  0  0  0
   14.6180   -7.3550    0.0000 C   0  0  0  0  0  0  0  0  0  0  0  0
   15.3320   -7.7680    0.0000 C   0  0  0  0  0  0  0  0  0  0  0  0
   15.3320   -9.4180    0.0000 C   0  0  0  0  0  0  0  0  0  0  0  0
   16.0470   -8.1800    0.0000 C   0  0  0  0  0  0  0  0  0  0  0  0
   13.9040   -6.9430    0.0000 C   0  0  0  0  0  0  0  0  0  0  0  0
   14.6280  -10.6600    0.0000 C   0  0  0  0  0  0  0  0  0  0  0  0
   15.3430  -11.0730    0.0000 C   0  0  0  0  0  0  0  0  0  0  0  0
   14.6280   -9.8350    0.0000 O   0  0  0  0  0  0  0  0  0  0  0  0
  1  2  1  0  0  0  0
  1  3  1  0  0  0  0
  1 12  1  1  0  0  0
  2  4  1  0  0  0  0
  2  5  1  6  0  0  0
  3  6  1  0  0  0  0
  3  7  1  6  0  0  0
  4  8  1  0  0  0  0
  4  9  1  1  0  0  0
  5 30  1  0  0  0  0
  6  8  1  0  0  0  0
  6 10  1  1  0  0  0
  7 17  1  0  0  0  0
  9 11  1  0  0  0  0
 10 13  1  0  0  0  0
 11 23  1  0  0  0  0
 12 20  1  0  0  0  0
 13 14  1  0  0  0  0
 14 15  2  0  0  0  0
 14 16  1  0  0  0  0
 17 18  1  0  0  0  0
 17 19  2  0  0  0  0
 20 21  1  0  0  0  0
 20 22  2  0  0  0  0
 23 24  1  0  0  0  0
 23 25  1  0  0  0  0
 23 26  1  0  0  0  0
 24 27  1  0  0  0  0
 25 29  1  0  0  0  0
 26 28  1  0  0  0  0
 30 31  1  0  0  0  0
 30 32  2  0  0  0  0
M  CHG  2  11  -1  23   1
M  END
>  <DATABASE_ID>
DB00995

>  <DATABASE_NAME>
drugbank

>  <SMILES>
[Au-](S[C@@H]1O[C@H](COC(=O)C)[C@@H](OC(=O)C)[C@H](OC(=O)C)[C@H]1OC(=O)C)[P+](CC)(CC)CC

>  <INCHI_IDENTIFIER>
InChI=1S/C14H20O9S.C6H15P.Au/c1-6(15)19-5-10-11(20-7(2)16)12(21-8(3)17)13(14(24)23-10)22-9(4)18;1-4-7(5-2)6-3;/h10-14,24H,5H2,1-4H3;4-6H2,1-3H3;/q;;+1/p-1/t10-,11-,12+,13-,14+;;/m1../s1

>  <INCHI_KEY>
InChIKey=AUJRCFUBUPVWSZ-XTZHGVARSA-M

>  <JCHEM_ACCEPTOR_COUNT>
5

>  <JCHEM_AVERAGE_POLARIZABILITY>
50.64381

>  <JCHEM_BIOAVAILABILITY>
0

>  <JCHEM_DONOR_COUNT>
0

>  <JCHEM_EXACT_MASS>
678.13269

>  <JCHEM_FORMAL_CHARGE>
0

>  <JCHEM_FORMULA>
C20H34AuO9PS

>  <JCHEM_GHOSE_FILTER>
0

>  <JCHEM_IUPAC>
[(2R,3R,4S,5R,6S)-3,4,5-tris(acetyloxy)-6-{[(triethyl-$l^{5}-phosphanylidene)aurio]sulfanyl}oxan-2-yl]methyl acetate

>  <ALOGPS_LOGP>
2.99

>  <JCHEM_LOGP>
-1.0203

>  <ALOGPS_LOGS>
-3.6500001

>  <JCHEM_MASS>
678.48401

>  <JCHEM_MDDR_LIKE_RULE>
0

>  <JCHEM_NUMBER_OF_RINGS>
1

>  <JCHEM_PHYSIOLOGICAL_CHARGE>
0

>  <JCHEM_PKA_STRONGEST_BASIC>
-4.2818213

>  <JCHEM_POLAR_SURFACE_AREA>
114.43

>  <JCHEM_REFRACTIVITY>
114.885

>  <JCHEM_ROTATABLE_BOND_COUNT>
14

>  <JCHEM_RULE_OF_FIVE>
0

>  <ALOGPS_SOLUBILITY>
1.51e-01 g/l

>  <JCHEM_TRADITIONAL_IUPAC>
auranofin

>  <JCHEM_VEBER_RULE>
0

>  <DRUGBANK_ID>
DB00995

>  <DRUG_GROUPS>
approved

>  <GENERIC_NAME>
Auranofin

>  <BRANDS>
Ridaura

$$$$
Gabapentin
 OpenBabel02121510022D

 12 12  0  0  0  0  0  0  0  0999 V2000
    4.7930    1.5400    0.0000 O   0  0  0  0  0  0  0  0  0  0  0  0
    4.7930    0.1110    0.0000 O   0  0  0  0  0  0  0  0  0  0  0  0
    1.9060    0.8250    0.0000 N   0  0  0  0  0  0  0  0  0  0  0  0
    3.1430    0.1110    0.0000 C   0  0  0  0  0  0  0  0  0  0  0  0
    2.4290   -0.3020    0.0000 C   0  0  0  0  0  0  0  0  0  0  0  0
    3.8580   -0.3020    0.0000 C   0  0  0  0  0  0  0  0  0  0  0  0
    2.4290   -1.1270    0.0000 C   0  0  0  0  0  0  0  0  0  0  0  0
    3.8580   -1.1270    0.0000 C   0  0  0  0  0  0  0  0  0  0  0  0
    3.1430   -1.5400    0.0000 C   0  0  0  0  0  0  0  0  0  0  0  0
    3.5560    0.8250    0.0000 C   0  0  0  0  0  0  0  0  0  0  0  0
    2.7310    0.8250    0.0000 C   0  0  0  0  0  0  0  0  0  0  0  0
    4.3810    0.8250    0.0000 C   0  0  0  0  0  0  0  0  0  0  0  0
  1 12  1  0  0  0  0
  2 12  2  0  0  0  0
  3 11  1  0  0  0  0
  4  5  1  0  0  0  0
  4  6  1  0  0  0  0
  4 10  1  0  0  0  0
  4 11  1  0  0  0  0
  5  7  1  0  0  0  0
  6  8  1  0  0  0  0
  7  9  1  0  0  0  0
  8  9  1  0  0  0  0
 10 12  1  0  0  0  0
M  END
>  <DATABASE_ID>
DB00996

>  <DATABASE_NAME>
drugbank

>  <SMILES>
OC(=O)CC1(CCCCC1)CN

>  <INCHI_IDENTIFIER>
InChI=1S/C9H17NO2/c10-7-9(6-8(11)12)4-2-1-3-5-9/h1-7,10H2,(H,11,12)

>  <INCHI_KEY>
InChIKey=UGJMXCAKCUNAIE-UHFFFAOYSA-N

>  <JCHEM_ACCEPTOR_COUNT>
3

>  <JCHEM_AVERAGE_POLARIZABILITY>
18.92495

>  <JCHEM_BIOAVAILABILITY>
1

>  <JCHEM_DONOR_COUNT>
2

>  <JCHEM_EXACT_MASS>
171.12593

>  <JCHEM_FORMAL_CHARGE>
0

>  <JCHEM_FORMULA>
C9H17NO2

>  <JCHEM_GHOSE_FILTER>
0

>  <JCHEM_IUPAC>
2-[1-(aminomethyl)cyclohexyl]acetic acid

>  <ALOGPS_LOGP>
-1.88

>  <JCHEM_LOGP>
-1.273033

>  <ALOGPS_LOGS>
-1.6

>  <JCHEM_MASS>
171.2368

>  <JCHEM_MDDR_LIKE_RULE>
0

>  <JCHEM_NUMBER_OF_RINGS>
1

>  <JCHEM_PHYSIOLOGICAL_CHARGE>
0

>  <JCHEM_PKA_STRONGEST_ACIDIC>
4.6313047

>  <JCHEM_PKA_STRONGEST_BASIC>
9.9145975

>  <JCHEM_POLAR_SURFACE_AREA>
63.32

>  <JCHEM_REFRACTIVITY>
46.3283

>  <JCHEM_ROTATABLE_BOND_COUNT>
3

>  <JCHEM_RULE_OF_FIVE>
1

>  <ALOGPS_SOLUBILITY>
4.34e+00 g/l

>  <JCHEM_TRADITIONAL_IUPAC>
gabapentin

>  <JCHEM_VEBER_RULE>
0

>  <DRUGBANK_ID>
DB00996

>  <DRUG_GROUPS>
approved; investigational

>  <GENERIC_NAME>
Gabapentin

>  <SYNONYMS>
Gabapentine; Gabapentino; Gabapentinum

>  <BRANDS>
Gralise

$$$$
