REMARK  14 active torsions:
REMARK  status: ('A' for Active; 'I' for Inactive)
REMARK    1  A    between atoms: N_2  and  C_4 
REMARK    2  A    between atoms: C_7  and  C_10 
REMARK       I    between atoms: C_10  and  N_12 
REMARK    3  A    between atoms: N_12  and  C_13 
REMARK    4  A    between atoms: N_12  and  C_30 
REMARK    5  A    between atoms: C_13  and  C_14 
REMARK    6  A    between atoms: C_14  and  C_15 
REMARK    7  A    between atoms: C_15  and  N_16 
REMARK    8  A    between atoms: N_16  and  C_18 
REMARK    9  A    between atoms: C_18  and  C_19 
REMARK   10  A    between atoms: C_19  and  C_20 
REMARK   11  A    between atoms: C_23  and  O_24 
REMARK   12  A    between atoms: C_26  and  O_27 
REMARK   13  A    between atoms: C_33  and  O_34 
REMARK   14  A    between atoms: C_36  and  O_37 
ROOT
HETATM    1  C   LIG     1       4.944  -2.053  -0.527  1.00  0.00     0.258 C 
HETATM    2  O   LIG     1       4.146  -2.913  -0.906  1.00  0.00    -0.267 OA
HETATM    3  N   LIG     1       4.702  -0.718  -0.662  1.00  0.00    -0.314 N 
ENDROOT
BRANCH   3   4
HETATM    4  C   LIG     1       3.343  -0.265  -1.002  1.00  0.00     0.134 C 
BRANCH   4   5
HETATM    5  C   LIG     1       2.356  -0.411   0.173  1.00  0.00     0.048 C 
BRANCH   5   6
HETATM    6  C   LIG     1       0.951   0.108  -0.182  1.00  0.00     0.236 C 
BRANCH   6   7
HETATM    7  N   LIG     1      -0.047  -0.141   0.892  1.00  0.00    -0.075 N 
HETATM    8  C   LIG     1       0.163   0.730   2.076  1.00  0.00     0.269 C 
HETATM    9  H   LIG     1       0.098  -1.095   1.191  1.00  0.00     0.279 HD
BRANCH   7  10
HETATM   10  C   LIG     1      -1.444  -0.080   0.383  1.00  0.00     0.239 C 
BRANCH  10  11
HETATM   11  C   LIG     1      -2.442  -0.828   1.285  1.00  0.00     0.066 C 
BRANCH  11  12
HETATM   12  C   LIG     1      -3.847  -0.805   0.714  1.00  0.00    -0.054 A 
HETATM   13  C   LIG     1      -4.282  -1.834  -0.142  1.00  0.00     0.046 A 
HETATM   14  C   LIG     1      -5.585  -1.839  -0.682  1.00  0.00     0.102 A 
HETATM   15  C   LIG     1      -6.472  -0.763  -0.383  1.00  0.00     0.101 A 
HETATM   16  C   LIG     1      -6.021   0.267   0.485  1.00  0.00     0.040 A 
HETATM   17  C   LIG     1      -4.725   0.245   1.029  1.00  0.00     0.010 A 
BRANCH  14  18
HETATM   18  O   LIG     1      -5.866  -2.917  -1.499  1.00  0.00    -0.353 OA
HETATM   19  C   LIG     1      -7.212  -3.327  -1.684  1.00  0.00     0.210 C 
ENDBRANCH  14  18
BRANCH  15  20
HETATM   20  O   LIG     1      -7.727  -0.735  -0.959  1.00  0.00    -0.353 OA
HETATM   21  C   LIG     1      -8.607   0.337  -0.650  1.00  0.00     0.210 C 
ENDBRANCH  15  20
ENDBRANCH  11  12
ENDBRANCH  10  11
ENDBRANCH   7  10
ENDBRANCH   6   7
ENDBRANCH   5   6
ENDBRANCH   4   5
ENDBRANCH   3   4
BRANCH   3  22
HETATM   22  C   LIG     1       5.715   0.285  -0.556  1.00  0.00     0.040 A 
HETATM   23  C   LIG     1       5.518   1.405   0.277  1.00  0.00     0.069 A 
HETATM   24  C   LIG     1       6.487   2.423   0.393  1.00  0.00     0.103 A 
HETATM   25  C   LIG     1       7.710   2.313  -0.333  1.00  0.00     0.101 A 
HETATM   26  C   LIG     1       7.893   1.194  -1.186  1.00  0.00     0.042 A 
HETATM   27  C   LIG     1       6.908   0.198  -1.304  1.00  0.00     0.032 A 
BRANCH  24  28
HETATM   28  O   LIG     1       6.143   3.448   1.252  1.00  0.00    -0.353 OA
HETATM   29  C   LIG     1       6.739   4.727   1.097  1.00  0.00     0.210 C 
ENDBRANCH  24  28
BRANCH  25  30
HETATM   30  O   LIG     1       8.686   3.277  -0.173  1.00  0.00    -0.353 OA
HETATM   31  C   LIG     1       9.903   3.156  -0.895  1.00  0.00     0.210 C 
ENDBRANCH  25  30
ENDBRANCH   3  22
BRANCH   1  32
HETATM   32  C   LIG     1       6.247  -2.505   0.076  1.00  0.00     0.032 A 
HETATM   33  C   LIG     1       6.695  -1.992   1.313  1.00  0.00     0.019 A 
HETATM   34  C   LIG     1       7.906  -2.440   1.876  1.00  0.00     0.037 A 
HETATM   35  C   LIG     1       8.684  -3.422   1.221  1.00  0.00     0.102 A 
HETATM   36  C   LIG     1       8.220  -3.951  -0.006  1.00  0.00     0.037 A 
HETATM   37  C   LIG     1       7.010  -3.502  -0.569  1.00  0.00     0.019 A 
BRANCH  35  38
HETATM   38  N   LIG     1       9.954  -3.891   1.810  1.00  0.00    -0.116 N 
HETATM   39  O   LIG     1      10.595  -4.745   1.205  1.00  0.00    -0.532 OA
HETATM   40  O   LIG     1      10.313  -3.406   2.878  1.00  0.00    -0.532 OA
ENDBRANCH  35  38
ENDBRANCH   1  32
TORSDOF 14
