REMARK  2 active torsions:
REMARK  status: ('A' for Active; 'I' for Inactive)
REMARK    1  A    between atoms: C_3  and  N_4 
REMARK    2  A    between atoms: N_4  and  C_5 
ROOT
HETATM    1  N   LIG     1       0.945   0.409   0.864  1.00  0.00    -0.235 NA
HETATM    2  H   LIG     1       1.746   0.913   0.511  1.00  0.00     0.131 HD
ENDROOT
BRANCH   1   3
HETATM    3  C   LIG     1      -0.275   1.051   0.600  1.00  0.00     0.055 A 
HETATM    4  C   LIG     1      -0.330   2.034  -0.417  1.00  0.00     0.057 A 
HETATM    5 CL   LIG     1       1.080   2.457  -1.325  1.00  0.00    -0.082 Cl
HETATM    6  C   LIG     1      -1.545   2.683  -0.712  1.00  0.00     0.026 A 
HETATM    7  C   LIG     1      -2.711   2.365   0.007  1.00  0.00     0.003 A 
HETATM    8  C   LIG     1      -2.660   1.402   1.031  1.00  0.00     0.026 A 
HETATM    9  C   LIG     1      -1.450   0.748   1.336  1.00  0.00     0.057 A 
HETATM   10 CL   LIG     1      -1.439  -0.382   2.647  1.00  0.00    -0.082 Cl
ENDBRANCH   1   3
BRANCH   1  11
HETATM   11  C   LIG     1       1.000  -0.995   0.497  1.00  0.00     0.532 C 
HETATM   12  N   LIG     1       2.153  -1.613   1.110  1.00  0.00     0.133 N 
HETATM   13  C   LIG     1       2.311  -2.828   0.336  1.00  0.00     0.304 C 
HETATM   14  H   LIG     1       1.992  -1.812   2.087  1.00  0.00     0.320 HD
HETATM   15  C   LIG     1       1.757  -2.484  -1.051  1.00  0.00     0.304 C 
HETATM   16  N   LIG     1       1.219  -1.143  -0.926  1.00  0.00     0.133 N 
HETATM   17  H   LIG     1       0.363  -1.036  -1.452  1.00  0.00     0.320 HD
ENDBRANCH   1  11
TORSDOF 2
