REMARK  8 active torsions:
REMARK  status: ('A' for Active; 'I' for Inactive)
REMARK    1  A    between atoms: C_5  and  C_8 
REMARK    2  A    between atoms: C_8  and  N_9 
REMARK    3  A    between atoms: C_8  and  C_22 
REMARK    4  A    between atoms: N_12  and  C_15 
REMARK    5  A    between atoms: C_15  and  C_16 
REMARK    6  A    between atoms: C_16  and  O_17 
REMARK    7  A    between atoms: O_17  and  C_18 
REMARK    8  A    between atoms: C_18  and  C_19 
ROOT
HETATM    1  N   LIG     1      -0.773   1.179   0.815  1.00  0.00    -0.056 N 
HETATM    2  C   LIG     1      -0.442   1.701  -0.537  1.00  0.00     0.263 C 
HETATM    3  C   LIG     1       0.366   3.006  -0.428  1.00  0.00     0.262 C 
HETATM    4  N   LIG     1       1.596   2.801   0.375  1.00  0.00    -0.066 N 
HETATM    5  C   LIG     1       1.280   2.263   1.723  1.00  0.00     0.262 C 
HETATM    6  C   LIG     1       0.456   0.966   1.622  1.00  0.00     0.263 C 
HETATM    7  H   LIG     1      -1.263   1.936   1.269  1.00  0.00     0.281 HD
HETATM    8  H   LIG     1       2.133   2.089  -0.106  1.00  0.00     0.280 HD
ENDROOT
BRANCH   1   9
HETATM    9  C   LIG     1      -1.743   0.044   0.872  1.00  0.00     0.254 C 
BRANCH   9  10
HETATM   10  C   LIG     1      -3.109   0.398   0.274  1.00  0.00    -0.023 A 
HETATM   11  C   LIG     1      -3.519  -0.028  -1.012  1.00  0.00     0.011 A 
HETATM   12  C   LIG     1      -4.783   0.334  -1.518  1.00  0.00     0.024 A 
HETATM   13  C   LIG     1      -5.653   1.126  -0.747  1.00  0.00     0.034 A 
HETATM   14 CL   LIG     1      -7.200   1.569  -1.368  1.00  0.00    -0.084 Cl
HETATM   15  C   LIG     1      -5.257   1.556   0.533  1.00  0.00     0.024 A 
HETATM   16  C   LIG     1      -3.993   1.194   1.038  1.00  0.00     0.011 A 
ENDBRANCH   9  10
BRANCH   9  17
HETATM   17  C   LIG     1      -1.160  -1.333   0.520  1.00  0.00    -0.023 A 
HETATM   18  C   LIG     1      -1.082  -2.322   1.528  1.00  0.00     0.009 A 
HETATM   19  C   LIG     1      -0.535  -3.591   1.254  1.00  0.00     0.001 A 
HETATM   20  C   LIG     1      -0.056  -3.887  -0.035  1.00  0.00     0.000 A 
HETATM   21  C   LIG     1      -0.126  -2.913  -1.048  1.00  0.00     0.001 A 
HETATM   22  C   LIG     1      -0.674  -1.645  -0.772  1.00  0.00     0.009 A 
ENDBRANCH   9  17
ENDBRANCH   1   9
BRANCH   4  23
HETATM   23  C   LIG     1       2.477   3.996   0.396  1.00  0.00     0.261 C 
BRANCH  23  24
HETATM   24  C   LIG     1       3.927   3.619   0.731  1.00  0.00     0.196 C 
BRANCH  24  25
HETATM   25  O   LIG     1       4.282   2.560  -0.137  1.00  0.00    -0.379 OA
BRANCH  25  26
HETATM   26  C   LIG     1       5.568   2.018   0.115  1.00  0.00     0.280 C 
BRANCH  26  27
HETATM   27  C   LIG     1       5.760   0.743  -0.706  1.00  0.00     0.197 C 
HETATM   28  O   LIG     1       4.731   0.128  -1.067  1.00  0.00    -0.646 OA
HETATM   29  O   LIG     1       6.937   0.395  -0.944  1.00  0.00    -0.646 OA
ENDBRANCH  26  27
ENDBRANCH  25  26
ENDBRANCH  24  25
ENDBRANCH  23  24
ENDBRANCH   4  23
TORSDOF 8
