REMARK  1 active torsions:
REMARK  status: ('A' for Active; 'I' for Inactive)
REMARK    1  A    between atoms: N_1  and  C_2 
ROOT
HETATM    1  C   LIG     1      -0.808  -0.586  -0.150  1.00  0.00     0.124 C 
HETATM    2  C   LIG     1       0.144  -0.883  -1.334  1.00  0.00     0.043 C 
HETATM    3  C   LIG     1       1.555  -0.339  -1.020  1.00  0.00    -0.012 C 
HETATM    4  C   LIG     1       2.100  -1.020   0.254  1.00  0.00     0.009 C 
HETATM    5  C   LIG     1       1.157  -0.718   1.438  1.00  0.00    -0.012 C 
HETATM    6  C   LIG     1      -0.254  -1.263   1.127  1.00  0.00     0.043 C 
HETATM    7  C   LIG     1       1.083   0.808   1.663  1.00  0.00     0.009 C 
HETATM    8  C   LIG     1       0.540   1.486   0.388  1.00  0.00    -0.012 C 
HETATM    9  C   LIG     1      -0.872   0.944   0.075  1.00  0.00     0.043 C 
HETATM   10  C   LIG     1       1.482   1.187  -0.798  1.00  0.00     0.009 C 
ENDROOT
BRANCH   1  11
HETATM   11  N   LIG     1      -2.155  -1.105  -0.448  1.00  0.00    -0.070 N 
HETATM   12  H   LIG     1      -2.772  -0.909   0.327  1.00  0.00     0.275 HD
HETATM   13  H   LIG     1      -2.512  -0.660  -1.282  1.00  0.00     0.275 HD
HETATM   14  H   LIG     1      -2.107  -2.103  -0.595  1.00  0.00     0.275 HD
ENDBRANCH   1  11
TORSDOF 1
