REMARK  3 active torsions:
REMARK  status: ('A' for Active; 'I' for Inactive)
REMARK    1  A    between atoms: N_6  and  C_14 
REMARK    2  A    between atoms: C_8  and  C_11 
REMARK    3  A    between atoms: C_18  and  N_19 
ROOT
HETATM    1  F   LIG     1      -2.016  -2.642  -0.948  1.00  0.00    -0.204 F 
HETATM    2  C   LIG     1      -0.978  -1.969  -0.422  1.00  0.00     0.140 C 
HETATM    3  C   LIG     1       0.121  -2.653  -0.076  1.00  0.00     0.036 C 
HETATM    4  C   LIG     1       1.373  -1.982   0.478  1.00  0.00     0.136 C 
HETATM    5  C   LIG     1       1.337  -0.460   0.426  1.00  0.00     0.029 C 
HETATM    6  N   LIG     1       2.445   0.201   0.646  1.00  0.00    -0.353 N 
HETATM    7  C   LIG     1       3.729  -0.471   0.565  1.00  0.00     0.113 C 
HETATM    8  C   LIG     1       3.882  -1.751   0.139  1.00  0.00     0.103 C 
HETATM    9  C   LIG     1       2.651  -2.505  -0.187  1.00  0.00     0.181 C 
HETATM   10  O   LIG     1       2.624  -3.519  -0.885  1.00  0.00    -0.291 OA
HETATM   11  C   LIG     1       0.064   0.135   0.163  1.00  0.00     0.059 C 
HETATM   12  C   LIG     1      -1.049  -0.525  -0.237  1.00  0.00     0.071 C 
ENDROOT
BRANCH  12  13
HETATM   13  N   LIG     1      -2.241   0.167  -0.453  1.00  0.00    -0.375 N 
HETATM   14  C   LIG     1      -2.310   1.522  -0.999  1.00  0.00     0.150 C 
HETATM   15  C   LIG     1      -2.891   2.503   0.035  1.00  0.00     0.252 C 
HETATM   16  N   LIG     1      -4.204   2.025   0.520  1.00  0.00    -0.072 N 
HETATM   17  C   LIG     1      -4.157   0.641   1.039  1.00  0.00     0.252 C 
HETATM   18  H   LIG     1      -4.537   2.643   1.246  1.00  0.00     0.277 HD
HETATM   19  H   LIG     1      -4.854   2.050  -0.252  1.00  0.00     0.277 HD
HETATM   20  C   LIG     1      -3.544  -0.319   0.002  1.00  0.00     0.150 C 
ENDBRANCH  12  13
BRANCH   6  21
HETATM   21  C   LIG     1       2.445   1.647   1.006  1.00  0.00     0.089 A 
HETATM   22  C   LIG     1       3.528   2.513   0.384  1.00  0.00     0.028 A 
HETATM   23  C   LIG     1       2.110   2.615  -0.114  1.00  0.00     0.028 A 
ENDBRANCH   6  21
BRANCH   8  24
HETATM   24  C   LIG     1       5.321  -2.370  -0.002  1.00  0.00     0.214 C 
HETATM   25  O   LIG     1       5.398  -3.609  -0.153  1.00  0.00    -0.644 OA
HETATM   26  O   LIG     1       6.276  -1.567   0.085  1.00  0.00    -0.644 OA
ENDBRANCH   8  24
TORSDOF 3
