REMARK  8 active torsions:
REMARK  status: ('A' for Active; 'I' for Inactive)
REMARK    1  A    between atoms: C_2  and  O_3 
REMARK       I    between atoms: C_2  and  N_8 
REMARK    2  A    between atoms: O_3  and  C_4 
REMARK    3  A    between atoms: N_16  and  C_18 
REMARK    4  A    between atoms: C_18  and  C_19 
REMARK    5  A    between atoms: C_19  and  O_20 
REMARK    6  A    between atoms: C_19  and  C_21 
REMARK    7  A    between atoms: C_21  and  O_22 
REMARK    8  A    between atoms: O_22  and  C_23 
ROOT
HETATM    1  C   LIG     1      -5.331   0.903   0.687  1.00  0.00     0.069 A 
HETATM    2  C   LIG     1      -4.673   2.155   0.597  1.00  0.00     0.038 A 
HETATM    3  C   LIG     1      -5.416   3.352   0.576  1.00  0.00     0.025 A 
HETATM    4  C   LIG     1      -6.822   3.315   0.643  1.00  0.00     0.044 A 
HETATM    5  C   LIG     1      -7.588   4.551   0.621  1.00  0.00     0.099 C 
HETATM    6  N   LIG     1      -8.197   5.535   0.604  1.00  0.00    -0.191 NA
HETATM    7  C   LIG     1      -7.484   2.075   0.732  1.00  0.00     0.025 A 
HETATM    8  C   LIG     1      -6.740   0.879   0.753  1.00  0.00     0.038 A 
ENDROOT
BRANCH   1   9
HETATM    9  O   LIG     1      -4.685  -0.314   0.713  1.00  0.00    -0.349 OA
BRANCH   9  10
HETATM   10  C   LIG     1      -3.264  -0.324   0.662  1.00  0.00     0.209 C 
BRANCH  10  11
HETATM   11  C   LIG     1      -2.781  -1.782   0.703  1.00  0.00     0.168 C 
BRANCH  11  12
HETATM   12  C   LIG     1      -1.342  -2.003   0.184  1.00  0.00     0.268 C 
BRANCH  12  13
HETATM   13  N   LIG     1      -0.309  -1.434   1.092  1.00  0.00    -0.064 N 
HETATM   14  C   LIG     1       0.075   0.004   0.760  1.00  0.00     0.268 C 
HETATM   15  C   LIG     1       1.426   0.150  -0.034  1.00  0.00     0.165 C 
HETATM   16  O   LIG     1       1.978  -1.131  -0.060  1.00  0.00    -0.376 OA
HETATM   17  C   LIG     1       2.575   1.053   0.549  1.00  0.00     0.161 C 
HETATM   18  C   LIG     1       2.115  -1.573   1.274  1.00  0.00     0.149 C 
HETATM   19  C   LIG     1       3.589  -1.941   1.366  1.00  0.00     0.053 C 
HETATM   20  C   LIG     1       0.840  -2.385   1.364  1.00  0.00     0.267 C 
HETATM   21  C   LIG     1       4.356  -0.571   1.398  1.00  0.00     0.131 C 
HETATM   22  N   LIG     1       3.909   0.407   0.354  1.00  0.00    -0.325 N 
HETATM   23  C   LIG     1       4.585   0.604  -0.858  1.00  0.00     0.363 C 
HETATM   24  O   LIG     1       4.212   1.353  -1.762  1.00  0.00    -0.238 OA
HETATM   25  H   LIG     1      -0.797  -1.377   1.976  1.00  0.00     0.280 HD
BRANCH  23  26
HETATM   26  O   LIG     1       5.706  -0.164  -0.912  1.00  0.00    -0.294 OA
BRANCH  26  27
HETATM   27  C   LIG     1       6.603  -0.224  -2.030  1.00  0.00     0.061 C 
HETATM   28  C   LIG     1       7.681  -1.227  -1.586  1.00  0.00     0.046 C 
HETATM   29  C   LIG     1       5.898  -0.772  -3.289  1.00  0.00     0.046 C 
HETATM   30  C   LIG     1       7.270   1.143  -2.294  1.00  0.00     0.046 C 
ENDBRANCH  26  27
ENDBRANCH  23  26
ENDBRANCH  12  13
ENDBRANCH  11  12
BRANCH  11  31
HETATM   31  O   LIG     1      -2.853  -2.264   2.030  1.00  0.00    -0.392 OA
HETATM   32  H   LIG     1      -3.750  -2.198   2.323  1.00  0.00     0.210 HD
ENDBRANCH  11  31
ENDBRANCH  10  11
ENDBRANCH   9  10
ENDBRANCH   1   9
TORSDOF 8
