REMARK  7 active torsions:
REMARK  status: ('A' for Active; 'I' for Inactive)
REMARK    1  A    between atoms: C_5  and  C_8 
REMARK    2  A    between atoms: C_8  and  O_9 
REMARK    3  A    between atoms: N_12  and  C_15 
REMARK    4  A    between atoms: C_15  and  C_16 
REMARK    5  A    between atoms: C_16  and  C_17 
REMARK    6  A    between atoms: C_17  and  C_18 
REMARK    7  A    between atoms: C_18  and  C_20 
ROOT
HETATM    1  C   LIG     1       3.274   1.709  -1.464  1.00  0.00     0.088 C 
HETATM    2  C   LIG     1       2.695   0.479  -2.209  1.00  0.00     0.071 C 
HETATM    3  C   LIG     1       1.957  -0.502  -1.271  1.00  0.00     0.238 C 
HETATM    4  N   LIG     1       0.884   0.179  -0.501  1.00  0.00    -0.071 N 
HETATM    5  C   LIG     1       1.413   1.345   0.254  1.00  0.00     0.238 C 
HETATM    6  C   LIG     1       2.092   2.348  -0.694  1.00  0.00     0.071 C 
HETATM    7  H   LIG     1       0.236   0.542  -1.186  1.00  0.00     0.279 HD
ENDROOT
BRANCH   4   8
HETATM    8  C   LIG     1       0.115  -0.770   0.344  1.00  0.00     0.235 C 
BRANCH   8   9
HETATM    9  C   LIG     1      -1.286  -0.244   0.701  1.00  0.00     0.035 C 
BRANCH   9  10
HETATM   10  C   LIG     1      -2.103  -1.278   1.493  1.00  0.00     0.085 C 
BRANCH  10  11
HETATM   11  C   LIG     1      -3.491  -0.753   1.876  1.00  0.00     0.159 C 
HETATM   12  O   LIG     1      -3.650  -0.306   3.012  1.00  0.00    -0.292 OA
BRANCH  11  13
HETATM   13  C   LIG     1      -4.582  -0.798   0.857  1.00  0.00     0.010 A 
HETATM   14  C   LIG     1      -5.859  -0.289   1.195  1.00  0.00     0.018 A 
HETATM   15  C   LIG     1      -6.914  -0.316   0.263  1.00  0.00     0.043 A 
HETATM   16  C   LIG     1      -6.706  -0.852  -1.021  1.00  0.00     0.116 A 
HETATM   17  C   LIG     1      -5.442  -1.362  -1.370  1.00  0.00     0.043 A 
HETATM   18  F   LIG     1      -7.719  -0.877  -1.919  1.00  0.00    -0.206 F 
HETATM   19  C   LIG     1      -4.386  -1.337  -0.438  1.00  0.00     0.018 A 
ENDBRANCH  11  13
ENDBRANCH  10  11
ENDBRANCH   9  10
ENDBRANCH   8   9
ENDBRANCH   4   8
BRANCH   1  20
HETATM   20  C   LIG     1       4.479   1.416  -0.550  1.00  0.00    -0.024 A 
HETATM   21  C   LIG     1       5.137   0.160  -0.534  1.00  0.00     0.012 A 
HETATM   22  C   LIG     1       6.244  -0.065   0.307  1.00  0.00     0.024 A 
HETATM   23  C   LIG     1       6.723   0.964   1.137  1.00  0.00     0.034 A 
HETATM   24 CL   LIG     1       8.079   0.687   2.166  1.00  0.00    -0.084 Cl
HETATM   25  C   LIG     1       6.097   2.223   1.117  1.00  0.00     0.024 A 
HETATM   26  C   LIG     1       4.990   2.447   0.275  1.00  0.00     0.012 A 
ENDBRANCH   1  20
BRANCH   1  27
HETATM   27  O   LIG     1       3.649   2.639  -2.459  1.00  0.00    -0.385 OA
HETATM   28  H   LIG     1       4.351   2.265  -2.972  1.00  0.00     0.211 HD
ENDBRANCH   1  27
TORSDOF 7
