REMARK  6 active torsions:
REMARK  status: ('A' for Active; 'I' for Inactive)
REMARK    1  A    between atoms: C_4  and  C_5 
REMARK    2  A    between atoms: C_5  and  C_6 
REMARK    3  A    between atoms: C_6  and  N_7 
REMARK    4  A    between atoms: C_10  and  C_13 
REMARK    5  A    between atoms: C_15  and  O_16 
REMARK    6  A    between atoms: C_18  and  O_19 
ROOT
HETATM    1  N   LIG     1      -0.812   0.985   0.188  1.00  0.00    -0.071 N 
HETATM    2  C   LIG     1      -0.111   1.343   1.452  1.00  0.00     0.235 C 
HETATM    3  C   LIG     1       1.368   0.909   1.444  1.00  0.00     0.037 C 
HETATM    4  C   LIG     1       2.109   1.477   0.218  1.00  0.00     0.022 C 
HETATM    5  C   LIG     1       1.353   1.108  -1.073  1.00  0.00     0.037 C 
HETATM    6  C   LIG     1      -0.119   1.555  -0.998  1.00  0.00     0.235 C 
HETATM    7  H   LIG     1      -1.708   1.451   0.223  1.00  0.00     0.279 HD
ENDROOT
BRANCH   1   8
HETATM    8  C   LIG     1      -1.141  -0.460   0.039  1.00  0.00     0.235 C 
BRANCH   8   9
HETATM    9  C   LIG     1      -2.270  -0.913   0.987  1.00  0.00     0.037 C 
BRANCH   9  10
HETATM   10  C   LIG     1      -2.776  -2.350   0.706  1.00  0.00     0.025 C 
HETATM   11  C   LIG     1      -2.922  -3.144   2.014  1.00  0.00     0.036 C 
HETATM   12  C   LIG     1      -3.611  -4.483   1.746  1.00  0.00     0.176 C 
HETATM   13  O   LIG     1      -4.928  -4.278   1.252  1.00  0.00    -0.351 OA
HETATM   14  C   LIG     1      -5.071  -3.373   0.224  1.00  0.00     0.075 A 
HETATM   15  C   LIG     1      -4.075  -2.412  -0.103  1.00  0.00    -0.021 A 
HETATM   16  C   LIG     1      -6.277  -3.408  -0.505  1.00  0.00     0.037 A 
HETATM   17  C   LIG     1      -4.302  -1.529  -1.185  1.00  0.00     0.010 A 
HETATM   18  C   LIG     1      -5.505  -1.581  -1.914  1.00  0.00     0.001 A 
HETATM   19  C   LIG     1      -6.495  -2.518  -1.572  1.00  0.00     0.003 A 
ENDBRANCH   9  10
ENDBRANCH   8   9
ENDBRANCH   1   8
BRANCH   4  20
HETATM   20  C   LIG     1       3.570   1.046   0.175  1.00  0.00    -0.051 A 
HETATM   21  C   LIG     1       3.914  -0.314   0.064  1.00  0.00     0.010 A 
HETATM   22  C   LIG     1       5.265  -0.696   0.028  1.00  0.00     0.040 A 
HETATM   23  C   LIG     1       6.299   0.259   0.111  1.00  0.00     0.101 A 
HETATM   24  C   LIG     1       5.966   1.643   0.201  1.00  0.00     0.102 A 
HETATM   25  C   LIG     1       4.595   2.012   0.240  1.00  0.00     0.047 A 
BRANCH  23  26
HETATM   26  O   LIG     1       7.576  -0.267   0.070  1.00  0.00    -0.353 OA
HETATM   27  C   LIG     1       8.653   0.457   0.644  1.00  0.00     0.210 C 
ENDBRANCH  23  26
BRANCH  24  28
HETATM   28  O   LIG     1       6.977   2.584   0.220  1.00  0.00    -0.353 OA
HETATM   29  C   LIG     1       6.641   3.961   0.313  1.00  0.00     0.210 C 
ENDBRANCH  24  28
ENDBRANCH   4  20
TORSDOF 6
