REMARK  8 active torsions:
REMARK  status: ('A' for Active; 'I' for Inactive)
REMARK    1  A    between atoms: O_1  and  C_2 
REMARK    2  A    between atoms: C_2  and  C_3 
REMARK    3  A    between atoms: C_2  and  C_13 
REMARK    4  A    between atoms: C_4  and  O_5 
REMARK    5  A    between atoms: C_9  and  O_10 
REMARK    6  A    between atoms: C_13  and  N_14 
REMARK       I    between atoms: N_14  and  C_15 
REMARK    7  A    between atoms: C_15  and  C_17 
REMARK    8  A    between atoms: C_17  and  N_18 
ROOT
HETATM    1  C   LIG     1       0.735  -0.267   2.398  1.00  0.00     0.171 C 
ENDROOT
BRANCH   1   2
HETATM    2  O   LIG     1       0.629   0.714   3.410  1.00  0.00    -0.389 OA
HETATM    3  H   LIG     1      -0.207   0.614   3.838  1.00  0.00     0.210 HD
ENDBRANCH   1   2
BRANCH   1   4
HETATM    4  C   LIG     1      -0.392  -0.178   1.370  1.00  0.00     0.008 A 
HETATM    5  C   LIG     1      -1.178  -1.325   1.125  1.00  0.00     0.049 A 
HETATM    6  C   LIG     1      -2.216  -1.316   0.175  1.00  0.00     0.069 A 
HETATM    7  C   LIG     1      -2.467  -0.122  -0.541  1.00  0.00     0.039 A 
HETATM    8  C   LIG     1      -1.690   1.027  -0.306  1.00  0.00     0.040 A 
HETATM    9  C   LIG     1      -0.643   1.016   0.648  1.00  0.00     0.077 A 
BRANCH   6  10
HETATM   10  O   LIG     1      -2.921  -2.487   0.005  1.00  0.00    -0.356 OA
HETATM   11  C   LIG     1      -3.982  -2.498  -0.940  1.00  0.00     0.210 C 
ENDBRANCH   6  10
BRANCH   9  12
HETATM   12  O   LIG     1       0.156   2.111   0.906  1.00  0.00    -0.355 OA
HETATM   13  C   LIG     1      -0.039   3.289   0.139  1.00  0.00     0.210 C 
ENDBRANCH   9  12
ENDBRANCH   1   4
BRANCH   1  14
HETATM   14  C   LIG     1       2.148  -0.200   1.779  1.00  0.00     0.159 C 
BRANCH  14  15
HETATM   15  N   LIG     1       2.361  -1.242   0.776  1.00  0.00    -0.357 N 
HETATM   16  C   LIG     1       2.276  -1.074  -0.552  1.00  0.00     0.243 C 
HETATM   17  O   LIG     1       2.028   0.008  -1.086  1.00  0.00    -0.272 OA
HETATM   18  H   LIG     1       2.576  -2.165   1.127  1.00  0.00     0.162 HD
BRANCH  16  19
HETATM   19  C   LIG     1       2.506  -2.322  -1.406  1.00  0.00     0.332 C 
BRANCH  19  20
HETATM   20  N   LIG     1       2.136  -2.107  -2.817  1.00  0.00    -0.071 N 
HETATM   21  H   LIG     1       2.313  -2.945  -3.353  1.00  0.00     0.274 HD
HETATM   22  H   LIG     1       1.157  -1.867  -2.870  1.00  0.00     0.274 HD
HETATM   23  H   LIG     1       2.682  -1.342  -3.187  1.00  0.00     0.274 HD
ENDBRANCH  19  20
ENDBRANCH  16  19
ENDBRANCH  14  15
ENDBRANCH   1  14
TORSDOF 8
