REMARK  4 active torsions:
REMARK  status: ('A' for Active; 'I' for Inactive)
REMARK    1  A    between atoms: N_6  and  C_14 
REMARK    2  A    between atoms: C_8  and  C_11 
REMARK    3  A    between atoms: C_17  and  O_18 
REMARK    4  A    between atoms: C_20  and  N_21 
ROOT
HETATM    1  F   LIG     1      -2.113   2.621   0.003  1.00  0.00    -0.204 F 
HETATM    2  C   LIG     1      -0.938   1.952   0.078  1.00  0.00     0.146 A 
HETATM    3  C   LIG     1       0.246   2.652  -0.186  1.00  0.00     0.062 A 
HETATM    4  C   LIG     1       1.489   1.991  -0.175  1.00  0.00     0.044 A 
HETATM    5  C   LIG     1       1.560   0.595   0.096  1.00  0.00     0.084 A 
HETATM    6  N   LIG     1       2.876  -0.075  -0.031  1.00  0.00    -0.351 N 
HETATM    7  C   LIG     1       3.974   0.600  -0.208  1.00  0.00     0.088 C 
HETATM    8  C   LIG     1       4.038   2.095  -0.078  1.00  0.00     0.200 C 
HETATM    9  C   LIG     1       2.716   2.771  -0.485  1.00  0.00     0.181 C 
HETATM   10  O   LIG     1       2.691   3.913  -0.949  1.00  0.00    -0.291 OA
HETATM   11  C   LIG     1       0.357  -0.098   0.438  1.00  0.00     0.125 A 
HETATM   12  C   LIG     1      -0.899   0.574   0.392  1.00  0.00     0.105 A 
ENDROOT
BRANCH  12  13
HETATM   13  N   LIG     1      -2.095  -0.136   0.626  1.00  0.00    -0.372 N 
HETATM   14  C   LIG     1      -2.413  -1.285  -0.216  1.00  0.00     0.155 C 
HETATM   15  C   LIG     1      -3.690  -1.022  -1.040  1.00  0.00     0.199 C 
HETATM   16  N   LIG     1      -4.789  -0.564  -0.157  1.00  0.00    -0.068 N 
HETATM   17  C   LIG     1      -4.119  -2.262  -1.834  1.00  0.00     0.041 C 
HETATM   18  C   LIG     1      -4.444   0.641   0.631  1.00  0.00     0.252 C 
HETATM   19  H   LIG     1      -5.603  -0.363  -0.721  1.00  0.00     0.277 HD
HETATM   20  H   LIG     1      -5.012  -1.310   0.485  1.00  0.00     0.277 HD
HETATM   21  C   LIG     1      -3.163   0.413   1.457  1.00  0.00     0.150 C 
ENDBRANCH  12  13
BRANCH  11  22
HETATM   22  O   LIG     1       0.384  -1.414   0.827  1.00  0.00    -0.351 OA
HETATM   23  C   LIG     1       0.216  -1.607   2.227  1.00  0.00     0.210 C 
ENDBRANCH  11  22
BRANCH   6  24
HETATM   24  C   LIG     1       2.923  -1.563  -0.217  1.00  0.00     0.089 A 
HETATM   25  C   LIG     1       4.212  -2.342   0.053  1.00  0.00     0.028 A 
HETATM   26  C   LIG     1       3.098  -2.360   1.062  1.00  0.00     0.028 A 
ENDBRANCH   6  24
BRANCH   8  27
HETATM   27  C   LIG     1       5.219   2.618  -0.916  1.00  0.00     0.190 C 
HETATM   28  O   LIG     1       5.247   2.341  -2.137  1.00  0.00    -0.647 OA
HETATM   29  O   LIG     1       6.094   3.265  -0.302  1.00  0.00    -0.647 OA
ENDBRANCH   8  27
TORSDOF 4
