REMARK  12 active torsions:
REMARK  status: ('A' for Active; 'I' for Inactive)
REMARK    1  A    between atoms: C_10  and  O_11 
REMARK    2  A    between atoms: C_10  and  C_17 
REMARK    3  A    between atoms: O_11  and  C_12 
REMARK    4  A    between atoms: C_12  and  C_14 
REMARK    5  A    between atoms: C_14  and  O_15 
REMARK    6  A    between atoms: C_17  and  C_18 
REMARK    7  A    between atoms: C_18  and  N_19 
REMARK    8  A    between atoms: N_19  and  C_21 
REMARK    9  A    between atoms: C_21  and  C_22 
REMARK   10  A    between atoms: C_22  and  C_23 
REMARK   11  A    between atoms: C_23  and  C_24 
REMARK   12  A    between atoms: C_33  and  C_34 
ROOT
HETATM    1  F   LIG     1      -8.861  -2.106  -1.882  1.00  0.00    -0.206 F 
HETATM    2  C   LIG     1      -7.622  -1.704  -1.513  1.00  0.00     0.117 A 
HETATM    3  C   LIG     1      -7.455  -0.532  -0.757  1.00  0.00     0.043 A 
HETATM    4  C   LIG     1      -6.165  -0.119  -0.374  1.00  0.00     0.011 A 
HETATM    5  C   LIG     1      -5.021  -0.877  -0.719  1.00  0.00    -0.044 A 
HETATM    6  C   LIG     1      -5.200  -2.029  -1.525  1.00  0.00    -0.048 A 
HETATM    7  C   LIG     1      -6.494  -2.447  -1.904  1.00  0.00     0.049 A 
HETATM    8  C   LIG     1      -4.006  -2.788  -2.049  1.00  0.00     0.042 C 
HETATM    9  C   LIG     1      -2.825  -1.837  -2.244  1.00  0.00     0.044 C 
HETATM   10  C   LIG     1      -2.399  -1.155  -0.918  1.00  0.00     0.080 C 
HETATM   11  C   LIG     1      -3.626  -0.410  -0.247  1.00  0.00     0.058 C 
ENDROOT
BRANCH  10  12
HETATM   12  O   LIG     1      -1.993  -2.209  -0.019  1.00  0.00    -0.308 OA
BRANCH  12  13
HETATM   13  C   LIG     1      -0.908  -3.014  -0.175  1.00  0.00     0.283 C 
HETATM   14  O   LIG     1      -0.058  -2.940  -1.060  1.00  0.00    -0.263 OA
BRANCH  13  15
HETATM   15  C   LIG     1      -0.827  -4.096   0.904  1.00  0.00     0.277 C 
BRANCH  15  16
HETATM   16  O   LIG     1      -0.009  -3.686   1.994  1.00  0.00    -0.386 OA
HETATM   17  C   LIG     1      -0.615  -2.750   2.873  1.00  0.00     0.202 C 
ENDBRANCH  15  16
ENDBRANCH  13  15
ENDBRANCH  12  13
ENDBRANCH  10  12
BRANCH  10  18
HETATM   18  C   LIG     1      -1.252  -0.147  -1.252  1.00  0.00     0.067 C 
BRANCH  18  19
HETATM   19  C   LIG     1      -0.534   0.510  -0.054  1.00  0.00     0.237 C 
BRANCH  19  20
HETATM   20  N   LIG     1       0.697   1.242  -0.453  1.00  0.00    -0.075 N 
HETATM   21  H   LIG     1       1.195   0.627  -1.081  1.00  0.00     0.279 HD
HETATM   22  C   LIG     1       0.400   2.490  -1.200  1.00  0.00     0.269 C 
BRANCH  20  23
HETATM   23  C   LIG     1       1.608   1.473   0.701  1.00  0.00     0.234 C 
BRANCH  23  24
HETATM   24  C   LIG     1       3.062   1.732   0.269  1.00  0.00     0.035 C 
BRANCH  24  25
HETATM   25  C   LIG     1       4.014   1.859   1.468  1.00  0.00     0.080 C 
BRANCH  25  26
HETATM   26  C   LIG     1       5.424   2.127   1.052  1.00  0.00     0.105 A 
HETATM   27  N   LIG     1       6.328   1.132   0.977  1.00  0.00    -0.343 N 
HETATM   28  C   LIG     1       7.517   1.699   0.551  1.00  0.00     0.062 A 
HETATM   29  H   LIG     1       6.146   0.164   1.198  1.00  0.00     0.167 HD
HETATM   30  C   LIG     1       7.202   3.080   0.391  1.00  0.00     0.085 A 
HETATM   31  C   LIG     1       8.803   1.195   0.288  1.00  0.00     0.032 A 
HETATM   32  N   LIG     1       5.876   3.333   0.708  1.00  0.00    -0.233 NA
HETATM   33  C   LIG     1       8.227   3.950  -0.045  1.00  0.00     0.034 A 
HETATM   34  C   LIG     1       9.520   3.453  -0.311  1.00  0.00     0.002 A 
HETATM   35  C   LIG     1       9.808   2.082  -0.145  1.00  0.00     0.002 A 
ENDBRANCH  25  26
ENDBRANCH  24  25
ENDBRANCH  23  24
ENDBRANCH  20  23
ENDBRANCH  19  20
ENDBRANCH  18  19
ENDBRANCH  10  18
BRANCH  11  36
HETATM   36  C   LIG     1      -3.505  -0.310   1.318  1.00  0.00    -0.011 C 
HETATM   37  C   LIG     1      -3.843   1.083   1.884  1.00  0.00     0.010 C 
HETATM   38  C   LIG     1      -4.258  -1.411   2.091  1.00  0.00     0.010 C 
ENDBRANCH  11  36
TORSDOF 12
