REMARK  7 active torsions:
REMARK  status: ('A' for Active; 'I' for Inactive)
REMARK    1  A    between atoms: C_3  and  S_4 
REMARK    2  A    between atoms: S_4  and  N_7 
REMARK    3  A    between atoms: C_9  and  C_19 
REMARK    4  A    between atoms: C_10  and  N_11 
REMARK    5  A    between atoms: N_11  and  C_12 
REMARK    6  A    between atoms: C_12  and  C_13 
REMARK    7  A    between atoms: C_19  and  O_21 
ROOT
HETATM    1 CL   LIG     1       2.112  -3.627   0.063  1.00  0.00    -0.083 Cl
HETATM    2  C   LIG     1       2.020  -1.900   0.102  1.00  0.00     0.059 A 
HETATM    3  C   LIG     1       3.171  -1.084   0.049  1.00  0.00     0.097 A 
HETATM    4  C   LIG     1       3.039   0.317   0.088  1.00  0.00     0.047 A 
HETATM    5  C   LIG     1       1.768   0.929   0.173  1.00  0.00     0.065 A 
HETATM    6  C   LIG     1       0.602   0.110   0.235  1.00  0.00     0.047 A 
HETATM    7  C   LIG     1       0.752  -1.298   0.197  1.00  0.00     0.055 A 
ENDROOT
BRANCH   6   8
HETATM    8  N   LIG     1      -0.676   0.685   0.359  1.00  0.00    -0.383 N 
HETATM    9  H   LIG     1      -0.755   1.689   0.261  1.00  0.00     0.160 HD
BRANCH   8  10
HETATM   10  C   LIG     1      -1.890  -0.092   0.158  1.00  0.00     0.184 C 
BRANCH  10  11
HETATM   11  C   LIG     1      -3.117   0.761   0.171  1.00  0.00     0.070 A 
HETATM   12  C   LIG     1      -4.412   0.526   0.543  1.00  0.00     0.036 A 
HETATM   13  C   LIG     1      -5.125   1.734   0.306  1.00  0.00     0.027 A 
HETATM   14  C   LIG     1      -4.214   2.616  -0.201  1.00  0.00     0.142 A 
HETATM   15  O   LIG     1      -2.986   2.038  -0.294  1.00  0.00    -0.325 OA
ENDBRANCH  10  11
ENDBRANCH   8  10
ENDBRANCH   6   8
BRANCH   5  16
HETATM   16  C   LIG     1       1.717   2.436   0.210  1.00  0.00     0.178 C 
HETATM   17  O   LIG     1       2.579   3.098   0.786  1.00  0.00    -0.646 OA
BRANCH  16  18
HETATM   18  O   LIG     1       0.721   2.999  -0.533  1.00  0.00    -0.773 OA
HETATM   19  H   LIG     1       0.814   3.936  -0.601  1.00  0.00     0.167 HD
ENDBRANCH  16  18
ENDBRANCH   5  16
BRANCH   3  20
HETATM   20  S   LIG     1       4.823  -1.788  -0.062  1.00  0.00     0.241 S 
HETATM   21  O   LIG     1       4.855  -2.733  -1.188  1.00  0.00    -0.206 OA
HETATM   22  O   LIG     1       5.812  -0.703   0.026  1.00  0.00    -0.206 OA
BRANCH  20  23
HETATM   23  N   LIG     1       4.947  -2.702   1.390  1.00  0.00    -0.225 NA
HETATM   24  H   LIG     1       4.281  -3.474   1.415  1.00  0.00     0.136 HD
HETATM   25  H   LIG     1       4.917  -2.112   2.221  1.00  0.00     0.136 HD
ENDBRANCH  20  23
ENDBRANCH   3  20
TORSDOF 7
