REMARK  4 active torsions:
REMARK  status: ('A' for Active; 'I' for Inactive)
REMARK    1  A    between atoms: C_7  and  N_8 
REMARK       I    between atoms: N_11  and  C_14 
REMARK    2  A    between atoms: C_14  and  C_16 
REMARK    3  A    between atoms: C_19  and  O_20 
REMARK    4  A    between atoms: C_22  and  O_23 
ROOT
HETATM    1  N   LIG     1      -0.264   3.051  -0.835  1.00  0.00    -0.378 N 
HETATM    2  C   LIG     1      -1.365   3.550  -0.009  1.00  0.00     0.143 C 
HETATM    3  C   LIG     1      -1.521   2.681   1.252  1.00  0.00     0.146 C 
HETATM    4  N   LIG     1      -1.710   1.278   0.857  1.00  0.00    -0.345 N 
HETATM    5  C   LIG     1      -0.545   0.769   0.112  1.00  0.00     0.146 C 
HETATM    6  C   LIG     1      -0.339   1.625  -1.158  1.00  0.00     0.143 C 
HETATM    7  C   LIG     1      -2.899   0.642   1.005  1.00  0.00     0.254 C 
HETATM    8  O   LIG     1      -3.926   1.219   1.363  1.00  0.00    -0.267 OA
ENDROOT
BRANCH   1   9
HETATM    9  C   LIG     1       0.996   3.664  -0.654  1.00  0.00     0.030 A 
HETATM   10  C   LIG     1       1.103   5.072  -0.753  1.00  0.00     0.031 A 
HETATM   11  C   LIG     1       2.341   5.721  -0.580  1.00  0.00     0.032 A 
HETATM   12  C   LIG     1       3.494   4.967  -0.298  1.00  0.00     0.041 A 
HETATM   13  N   LIG     1       4.740   5.620  -0.121  1.00  0.00    -0.327 N 
HETATM   14  C   LIG     1       3.409   3.561  -0.209  1.00  0.00    -0.029 A 
HETATM   15  C   LIG     1       5.837   5.025   0.378  1.00  0.00     0.222 C 
HETATM   16  H   LIG     1       4.799   6.595  -0.377  1.00  0.00     0.169 HD
HETATM   17  O   LIG     1       6.913   5.612   0.474  1.00  0.00    -0.273 OA
HETATM   18  C   LIG     1       5.700   3.577   0.871  1.00  0.00     0.108 C 
HETATM   19  C   LIG     1       4.678   2.769   0.047  1.00  0.00     0.050 C 
HETATM   20  C   LIG     1       2.169   2.915  -0.387  1.00  0.00     0.038 A 
ENDBRANCH   1   9
BRANCH   7  21
HETATM   21  C   LIG     1      -2.963  -0.836   0.744  1.00  0.00     0.035 A 
HETATM   22  C   LIG     1      -3.937  -1.352  -0.133  1.00  0.00     0.056 A 
HETATM   23  C   LIG     1      -4.057  -2.737  -0.369  1.00  0.00     0.102 A 
HETATM   24  C   LIG     1      -3.161  -3.640   0.278  1.00  0.00     0.101 A 
HETATM   25  C   LIG     1      -2.201  -3.112   1.180  1.00  0.00     0.040 A 
HETATM   26  C   LIG     1      -2.110  -1.729   1.419  1.00  0.00     0.020 A 
BRANCH  23  27
HETATM   27  O   LIG     1      -5.054  -3.088  -1.258  1.00  0.00    -0.353 OA
HETATM   28  C   LIG     1      -5.639  -4.379  -1.181  1.00  0.00     0.210 C 
ENDBRANCH  23  27
BRANCH  24  29
HETATM   29  O   LIG     1      -3.236  -4.989  -0.004  1.00  0.00    -0.353 OA
HETATM   30  C   LIG     1      -2.342  -5.882   0.646  1.00  0.00     0.210 C 
ENDBRANCH  24  29
ENDBRANCH   7  21
TORSDOF 4
