REMARK  4 active torsions:
REMARK  status: ('A' for Active; 'I' for Inactive)
REMARK    1  A    between atoms: S_1  and  N_4 
REMARK    2  A    between atoms: N_4  and  C_5 
REMARK    3  A    between atoms: N_13  and  C_16 
REMARK    4  A    between atoms: C_29  and  O_30 
ROOT
HETATM    1  C   LIG     1      -0.646   2.844  -0.435  1.00  0.00     0.192 C 
HETATM    2  C   LIG     1      -1.759   3.402  -1.348  1.00  0.00     0.038 C 
HETATM    3  C   LIG     1      -2.676   4.380  -0.598  1.00  0.00     0.041 C 
HETATM    4  C   LIG     1      -1.927   5.393   0.251  1.00  0.00    -0.050 A 
HETATM    5  C   LIG     1      -2.622   6.517   0.745  1.00  0.00     0.030 A 
HETATM    6  C   LIG     1      -1.961   7.468   1.548  1.00  0.00     0.045 A 
HETATM    7  C   LIG     1      -2.683   8.624   2.053  1.00  0.00     0.099 C 
HETATM    8  N   LIG     1      -3.259   9.544   2.454  1.00  0.00    -0.191 NA
HETATM    9  C   LIG     1      -0.599   7.294   1.861  1.00  0.00     0.023 A 
HETATM   10  C   LIG     1       0.098   6.173   1.372  1.00  0.00     0.009 A 
HETATM   11  C   LIG     1      -0.559   5.217   0.569  1.00  0.00    -0.050 A 
HETATM   12  C   LIG     1       0.231   4.027   0.043  1.00  0.00     0.072 C 
ENDROOT
BRANCH   1  13
HETATM   13  N   LIG     1       0.118   1.744  -1.112  1.00  0.00    -0.066 N 
HETATM   14  C   LIG     1      -0.650   0.467  -1.149  1.00  0.00     0.238 C 
HETATM   15  C   LIG     1       0.055  -0.604  -1.997  1.00  0.00     0.066 C 
HETATM   16  C   LIG     1       1.484  -0.897  -1.486  1.00  0.00     0.073 C 
HETATM   17  O   LIG     1       1.430  -1.412  -0.153  1.00  0.00    -0.339 OA
HETATM   18  C   LIG     1       2.243   0.440  -1.409  1.00  0.00     0.066 C 
HETATM   19  C   LIG     1       2.251  -1.886  -2.390  1.00  0.00     0.075 C 
HETATM   20  C   LIG     1       1.082  -2.734   0.024  1.00  0.00     0.078 A 
HETATM   21  C   LIG     1       0.680  -3.142   1.310  1.00  0.00     0.040 A 
HETATM   22  C   LIG     1       1.138  -3.688  -1.022  1.00  0.00     0.006 A 
HETATM   23  C   LIG     1       0.312  -4.478   1.557  1.00  0.00     0.033 A 
HETATM   24  C   LIG     1       0.348  -5.429   0.515  1.00  0.00     0.043 A 
HETATM   25  C   LIG     1       0.761  -5.025  -0.771  1.00  0.00     0.042 A 
HETATM   26  C   LIG     1       1.594  -3.273  -2.410  1.00  0.00     0.157 C 
HETATM   27  C   LIG     1       1.493   1.503  -0.585  1.00  0.00     0.238 C 
HETATM   28  H   LIG     1       0.241   2.041  -2.069  1.00  0.00     0.280 HD
BRANCH  24  29
HETATM   29  N   LIG     1      -0.012  -6.768   0.711  1.00  0.00    -0.285 N 
HETATM   30  H   LIG     1       0.034  -7.348  -0.114  1.00  0.00     0.178 HD
BRANCH  29  31
HETATM   31  S   LIG     1      -0.540  -7.577   2.152  1.00  0.00     0.227 S 
HETATM   32  O   LIG     1      -1.578  -6.730   2.759  1.00  0.00    -0.206 OA
HETATM   33  O   LIG     1      -0.839  -8.957   1.743  1.00  0.00    -0.206 OA
HETATM   34  C   LIG     1       0.966  -7.575   3.208  1.00  0.00     0.186 C 
ENDBRANCH  29  31
ENDBRANCH  24  29
BRANCH  26  35
HETATM   35  O   LIG     1       2.492  -4.194  -2.996  1.00  0.00    -0.391 OA
HETATM   36  H   LIG     1       2.699  -3.902  -3.871  1.00  0.00     0.210 HD
ENDBRANCH  26  35
ENDBRANCH   1  13
TORSDOF 4
