REMARK  2 active torsions:
REMARK  status: ('A' for Active; 'I' for Inactive)
REMARK       I    between atoms: C_2  and  N_3 
REMARK    1  A    between atoms: C_2  and  C_14 
REMARK    2  A    between atoms: N_3  and  C_4 
ROOT
HETATM    1  O   LIG     1       0.040   1.351   0.817  1.00  0.00    -0.266 OA
HETATM    2  C   LIG     1      -0.302   0.455   0.045  1.00  0.00     0.273 C 
HETATM    3  N   LIG     1       0.575  -0.241  -0.701  1.00  0.00    -0.351 N 
HETATM    4  H   LIG     1       0.188  -0.955  -1.302  1.00  0.00     0.163 HD
ENDROOT
BRANCH   3   5
HETATM    5  C   LIG     1       2.031  -0.073  -0.736  1.00  0.00     0.088 C 
HETATM    6  C   LIG     1       2.672  -0.474   0.629  1.00  0.00     0.058 C 
HETATM    7  C   LIG     1       3.474   0.621   1.367  1.00  0.00     0.190 C 
HETATM    8  N   LIG     1       2.955   1.962   0.998  1.00  0.00    -0.066 N 
HETATM    9  C   LIG     1       4.997   0.510   1.121  1.00  0.00     0.033 C 
HETATM   10  C   LIG     1       3.243   2.255  -0.428  1.00  0.00     0.190 C 
HETATM   11  C   LIG     1       3.319   3.047   1.939  1.00  0.00     0.270 C 
HETATM   12  H   LIG     1       1.946   1.891   1.063  1.00  0.00     0.280 HD
HETATM   13  C   LIG     1       2.419   1.314  -1.335  1.00  0.00     0.058 C 
HETATM   14  C   LIG     1       4.759   2.195  -0.730  1.00  0.00     0.033 C 
HETATM   15  C   LIG     1       5.369   0.846  -0.329  1.00  0.00     0.004 C 
ENDBRANCH   3   5
BRANCH   2  16
HETATM   16  C   LIG     1      -1.725   0.042  -0.148  1.00  0.00     0.157 A 
HETATM   17  C   LIG     1      -2.810   0.671   0.561  1.00  0.00     0.028 A 
HETATM   18  C   LIG     1      -3.983   0.005   0.105  1.00  0.00     0.065 A 
HETATM   19  C   LIG     1      -2.984   1.703   1.518  1.00  0.00     0.016 A 
HETATM   20  N   LIG     1      -3.515  -0.933  -0.802  1.00  0.00    -0.273 N 
HETATM   21  C   LIG     1      -5.267   0.342   0.571  1.00  0.00     0.032 A 
HETATM   22  N   LIG     1      -2.166  -0.902  -0.950  1.00  0.00    -0.166 NA
HETATM   23  C   LIG     1      -4.277  -1.890  -1.577  1.00  0.00     0.180 C 
HETATM   24  C   LIG     1      -5.407   1.371   1.520  1.00  0.00     0.002 A 
HETATM   25  C   LIG     1      -4.266   2.048   1.992  1.00  0.00     0.001 A 
ENDBRANCH   2  16
TORSDOF 2
