REMARK  11 active torsions:
REMARK  status: ('A' for Active; 'I' for Inactive)
REMARK    1  A    between atoms: C_2  and  O_3 
REMARK    2  A    between atoms: C_2  and  C_13 
REMARK    3  A    between atoms: O_3  and  C_4 
REMARK    4  A    between atoms: C_4  and  C_5 
REMARK    5  A    between atoms: C_6  and  C_7 
REMARK    6  A    between atoms: C_7  and  N_8 
REMARK    7  A    between atoms: N_8  and  C_9 
REMARK    8  A    between atoms: N_8  and  C_11 
REMARK    9  A    between atoms: C_13  and  O_14 
REMARK   10  A    between atoms: C_13  and  C_15 
REMARK   11  A    between atoms: C_13  and  C_21 
ROOT
HETATM    1  C   LIG     1       2.971   0.803  -0.270  1.00  0.00     0.176 C 
ENDROOT
BRANCH   1   2
HETATM    2  C   LIG     1       1.774   1.490   0.440  1.00  0.00     0.299 C 
HETATM    3  O   LIG     1       1.916   2.389   1.270  1.00  0.00    -0.261 OA
BRANCH   2   4
HETATM    4  O   LIG     1       0.586   0.966   0.075  1.00  0.00    -0.307 OA
BRANCH   4   5
HETATM    5  C   LIG     1      -0.608   1.465   0.654  1.00  0.00     0.272 C 
BRANCH   5   6
HETATM    6  C   LIG     1      -1.754   0.709   0.127  1.00  0.00    -0.078 C 
HETATM    7  C   LIG     1      -2.702   0.072  -0.303  1.00  0.00    -0.077 C 
BRANCH   7   8
HETATM    8  C   LIG     1      -3.845  -0.708  -0.811  1.00  0.00     0.328 C 
BRANCH   8   9
HETATM    9  N   LIG     1      -5.091  -0.055  -0.326  1.00  0.00    -0.062 N 
HETATM   10  H   LIG     1      -4.922   0.937  -0.407  1.00  0.00     0.280 HD
BRANCH   9  11
HETATM   11  C   LIG     1      -6.247  -0.341  -1.217  1.00  0.00     0.231 C 
HETATM   12  C   LIG     1      -7.436   0.600  -0.973  1.00  0.00     0.034 C 
ENDBRANCH   9  11
BRANCH   9  13
HETATM   13  C   LIG     1      -5.380  -0.323   1.113  1.00  0.00     0.231 C 
HETATM   14  C   LIG     1      -5.502   0.983   1.909  1.00  0.00     0.034 C 
ENDBRANCH   9  13
ENDBRANCH   8   9
ENDBRANCH   7   8
ENDBRANCH   5   6
ENDBRANCH   4   5
ENDBRANCH   2   4
ENDBRANCH   1   2
BRANCH   1  15
HETATM   15  O   LIG     1       2.638   0.757  -1.650  1.00  0.00    -0.374 OA
HETATM   16  H   LIG     1       1.833   0.269  -1.739  1.00  0.00     0.211 HD
ENDBRANCH   1  15
BRANCH   1  17
HETATM   17  C   LIG     1       3.174  -0.632   0.266  1.00  0.00    -0.014 A 
HETATM   18  C   LIG     1       2.905  -0.975   1.617  1.00  0.00     0.011 A 
HETATM   19  C   LIG     1       3.111  -2.287   2.085  1.00  0.00     0.001 A 
HETATM   20  C   LIG     1       3.598  -3.278   1.215  1.00  0.00     0.000 A 
HETATM   21  C   LIG     1       3.884  -2.953  -0.123  1.00  0.00     0.001 A 
HETATM   22  C   LIG     1       3.678  -1.641  -0.591  1.00  0.00     0.011 A 
ENDBRANCH   1  17
BRANCH   1  23
HETATM   23  C   LIG     1       4.320   1.607  -0.201  1.00  0.00     0.035 C 
HETATM   24  C   LIG     1       4.245   3.048  -0.780  1.00  0.00     0.008 C 
HETATM   25  C   LIG     1       5.625   3.724  -0.818  1.00  0.00     0.001 C 
HETATM   26  C   LIG     1       6.269   3.748   0.575  1.00  0.00     0.000 C 
HETATM   27  C   LIG     1       6.372   2.329   1.152  1.00  0.00     0.001 C 
HETATM   28  C   LIG     1       5.000   1.637   1.194  1.00  0.00     0.008 C 
ENDBRANCH   1  23
TORSDOF 11
