REMARK  1 active torsions:
REMARK  status: ('A' for Active; 'I' for Inactive)
REMARK    1  A    between atoms: C_8  and  N_9 
ROOT
HETATM    1  N   LIG     1       0.475   0.771  -0.079  1.00  0.00    -0.266 N 
HETATM    2  C   LIG     1      -0.107  -0.410   0.278  1.00  0.00     0.262 A 
HETATM    3  O   LIG     1       0.429  -1.480   0.567  1.00  0.00    -0.267 OA
HETATM    4  C   LIG     1      -1.570  -0.177   0.263  1.00  0.00     0.048 A 
HETATM    5  C   LIG     1      -1.776   1.127  -0.106  1.00  0.00     0.048 A 
HETATM    6  C   LIG     1      -0.447   1.742  -0.331  1.00  0.00     0.262 A 
HETATM    7  O   LIG     1      -0.261   2.906  -0.685  1.00  0.00    -0.267 OA
HETATM    8  C   LIG     1      -3.063   1.680  -0.220  1.00  0.00     0.018 A 
HETATM    9  C   LIG     1      -4.155   0.825   0.064  1.00  0.00     0.001 A 
HETATM   10  C   LIG     1      -3.941  -0.526   0.447  1.00  0.00     0.001 A 
HETATM   11  C   LIG     1      -2.631  -1.051   0.552  1.00  0.00     0.018 A 
ENDROOT
BRANCH   1  12
HETATM   12  C   LIG     1       1.930   1.011  -0.214  1.00  0.00     0.189 C 
HETATM   13  C   LIG     1       2.728   0.623   1.048  1.00  0.00     0.247 C 
HETATM   14  O   LIG     1       2.551   1.257   2.086  1.00  0.00    -0.271 OA
HETATM   15  N   LIG     1       3.602  -0.400   1.003  1.00  0.00    -0.296 N 
HETATM   16  C   LIG     1       3.849  -1.202  -0.049  1.00  0.00     0.224 C 
HETATM   17  H   LIG     1       4.122  -0.589   1.847  1.00  0.00     0.171 HD
HETATM   18  O   LIG     1       4.691  -2.094   0.018  1.00  0.00    -0.273 OA
HETATM   19  C   LIG     1       3.047  -1.024  -1.344  1.00  0.00     0.106 C 
HETATM   20  C   LIG     1       2.514   0.406  -1.510  1.00  0.00     0.045 C 
ENDBRANCH   1  12
TORSDOF 1
