REMARK  8 active torsions:
REMARK  status: ('A' for Active; 'I' for Inactive)
REMARK    1  A    between atoms: C_4  and  C_12 
REMARK    2  A    between atoms: C_5  and  O_6 
REMARK    3  A    between atoms: O_6  and  C_7 
REMARK    4  A    between atoms: C_10  and  N_11 
REMARK       I    between atoms: C_12  and  N_14 
REMARK    5  A    between atoms: N_14  and  C_15 
REMARK    6  A    between atoms: C_15  and  C_16 
REMARK    7  A    between atoms: N_20  and  C_22 
REMARK    8  A    between atoms: C_22  and  C_23 
ROOT
HETATM    1  C   LIG     1       1.689  -2.159   0.938  1.00  0.00     0.254 C 
HETATM    2  O   LIG     1       2.866  -2.113   1.297  1.00  0.00    -0.268 OA
HETATM    3  N   LIG     1       0.975  -1.069   0.617  1.00  0.00    -0.354 N 
HETATM    4  H   LIG     1       0.012  -1.210   0.347  1.00  0.00     0.162 HD
ENDROOT
BRANCH   3   5
HETATM    5  C   LIG     1       1.500   0.287   0.527  1.00  0.00     0.156 C 
BRANCH   5   6
HETATM    6  C   LIG     1       2.323   0.491  -0.766  1.00  0.00     0.165 C 
HETATM    7  C   LIG     1       2.841   1.933  -0.939  1.00  0.00     0.268 C 
HETATM    8  N   LIG     1       1.744   2.859  -1.322  1.00  0.00    -0.063 N 
HETATM    9  C   LIG     1       1.039   2.362  -2.526  1.00  0.00     0.261 C 
HETATM   10  H   LIG     1       1.071   2.847  -0.569  1.00  0.00     0.280 HD
HETATM   11  C   LIG     1       0.528   0.932  -2.296  1.00  0.00     0.196 C 
HETATM   12  O   LIG     1       1.614   0.085  -1.938  1.00  0.00    -0.381 OA
BRANCH   8  13
HETATM   13  C   LIG     1       2.179   4.271  -1.465  1.00  0.00     0.273 C 
BRANCH  13  14
HETATM   14  C   LIG     1       2.567   4.887  -0.132  1.00  0.00    -0.032 A 
HETATM   15  C   LIG     1       3.926   5.041   0.215  1.00  0.00     0.012 A 
HETATM   16  C   LIG     1       4.281   5.610   1.454  1.00  0.00     0.043 A 
HETATM   17  C   LIG     1       3.279   6.029   2.350  1.00  0.00     0.116 A 
HETATM   18  C   LIG     1       1.921   5.880   2.006  1.00  0.00     0.043 A 
HETATM   19  F   LIG     1       3.620   6.575   3.541  1.00  0.00    -0.206 F 
HETATM   20  C   LIG     1       1.565   5.311   0.767  1.00  0.00     0.012 A 
ENDBRANCH  13  14
ENDBRANCH   8  13
ENDBRANCH   5   6
ENDBRANCH   3   5
BRANCH   1  21
HETATM   21  C   LIG     1       0.947  -3.466   0.891  1.00  0.00     0.067 A 
HETATM   22  C   LIG     1       1.174  -4.402   1.924  1.00  0.00     0.046 A 
HETATM   23  C   LIG     1       0.523  -5.648   1.929  1.00  0.00     0.061 A 
HETATM   24 CL   LIG     1       0.826  -6.755   3.222  1.00  0.00    -0.082 Cl
HETATM   25  C   LIG     1      -0.364  -5.975   0.883  1.00  0.00     0.050 A 
HETATM   26  C   LIG     1      -0.584  -5.056  -0.161  1.00  0.00     0.068 A 
HETATM   27  C   LIG     1       0.070  -3.796  -0.180  1.00  0.00     0.086 A 
BRANCH  25  28
HETATM   28  N   LIG     1      -1.024  -7.204   0.864  1.00  0.00    -0.398 N 
HETATM   29  H   LIG     1      -1.619  -7.476   0.094  1.00  0.00     0.156 HD
HETATM   30  H   LIG     1      -0.846  -7.902   1.573  1.00  0.00     0.156 HD
ENDBRANCH  25  28
BRANCH  27  31
HETATM   31  O   LIG     1      -0.100  -2.873  -1.198  1.00  0.00    -0.350 OA
BRANCH  31  32
HETATM   32  C   LIG     1      -0.888  -3.192  -2.340  1.00  0.00     0.171 C 
HETATM   33  C   LIG     1      -0.118  -4.088  -3.320  1.00  0.00     0.034 C 
ENDBRANCH  31  32
ENDBRANCH  27  31
ENDBRANCH   1  21
TORSDOF 8
