REMARK  4 active torsions:
REMARK  status: ('A' for Active; 'I' for Inactive)
REMARK    1  A    between atoms: N_6  and  C_14 
REMARK    2  A    between atoms: C_8  and  C_11 
REMARK    3  A    between atoms: C_17  and  O_18 
REMARK    4  A    between atoms: C_20  and  N_21 
ROOT
HETATM    1  F   LIG     1      -0.919   2.573   2.084  1.00  0.00    -0.204 F 
HETATM    2  C   LIG     1       0.158   1.974   1.519  1.00  0.00     0.146 A 
HETATM    3  C   LIG     1       1.378   2.668   1.495  1.00  0.00     0.062 A 
HETATM    4  C   LIG     1       2.522   2.067   0.939  1.00  0.00     0.044 A 
HETATM    5  C   LIG     1       2.459   0.740   0.442  1.00  0.00     0.084 A 
HETATM    6  N   LIG     1       3.713   0.118  -0.019  1.00  0.00    -0.351 N 
HETATM    7  C   LIG     1       4.769   0.813  -0.320  1.00  0.00     0.088 C 
HETATM    8  C   LIG     1       4.823   2.308  -0.157  1.00  0.00     0.200 C 
HETATM    9  C   LIG     1       3.800   2.823   0.872  1.00  0.00     0.181 C 
HETATM   10  O   LIG     1       4.050   3.821   1.548  1.00  0.00    -0.291 OA
HETATM   11  C   LIG     1       1.204   0.068   0.395  1.00  0.00     0.125 A 
HETATM   12  C   LIG     1       0.050   0.676   0.968  1.00  0.00     0.105 A 
ENDROOT
BRANCH  12  13
HETATM   13  N   LIG     1      -1.212   0.049   1.011  1.00  0.00    -0.374 N 
HETATM   14  C   LIG     1      -2.311   0.624   0.247  1.00  0.00     0.130 C 
HETATM   15  C   LIG     1      -3.439  -0.425   0.272  1.00  0.00     0.036 C 
HETATM   16  C   LIG     1      -2.923  -1.524   1.228  1.00  0.00     0.209 C 
HETATM   17  C   LIG     1      -3.768  -0.991  -1.121  1.00  0.00     0.010 C 
HETATM   18  C   LIG     1      -1.405  -1.381   1.163  1.00  0.00     0.156 C 
HETATM   19  N   LIG     1      -3.385  -2.889   0.883  1.00  0.00    -0.069 N 
HETATM   20  C   LIG     1      -4.744  -2.910   0.301  1.00  0.00     0.233 C 
HETATM   21  H   LIG     1      -3.354  -3.469   1.709  1.00  0.00     0.277 HD
HETATM   22  H   LIG     1      -2.755  -3.272   0.193  1.00  0.00     0.277 HD
HETATM   23  C   LIG     1      -4.786  -2.148  -1.041  1.00  0.00     0.028 C 
ENDBRANCH  12  13
BRANCH  11  24
HETATM   24  O   LIG     1       1.091  -1.137  -0.248  1.00  0.00    -0.351 OA
HETATM   25  C   LIG     1       0.805  -1.002  -1.632  1.00  0.00     0.210 C 
ENDBRANCH  11  24
BRANCH   6  26
HETATM   26  C   LIG     1       3.835  -1.364  -0.080  1.00  0.00     0.089 A 
HETATM   27  C   LIG     1       4.963  -1.998   0.717  1.00  0.00     0.028 A 
HETATM   28  C   LIG     1       3.543  -2.093   1.217  1.00  0.00     0.028 A 
ENDBRANCH   6  26
BRANCH   8  29
HETATM   29  C   LIG     1       4.579   2.973  -1.520  1.00  0.00     0.190 C 
HETATM   30  O   LIG     1       3.481   2.773  -2.090  1.00  0.00    -0.647 OA
HETATM   31  O   LIG     1       5.516   3.658  -1.981  1.00  0.00    -0.647 OA
ENDBRANCH   8  29
TORSDOF 4
