REMARK  6 active torsions:
REMARK  status: ('A' for Active; 'I' for Inactive)
REMARK    1  A    between atoms: N_2  and  C_4 
REMARK    2  A    between atoms: C_9  and  C_10 
REMARK    3  A    between atoms: C_11  and  C_22 
REMARK    4  A    between atoms: C_16  and  C_17 
REMARK    5  A    between atoms: C_17  and  O_19 
REMARK    6  A    between atoms: C_22  and  O_24 
ROOT
HETATM    1  C   LIG     1       0.544  -0.313  -0.246  1.00  0.00     0.103 A 
HETATM    2  C   LIG     1      -0.732  -1.023   0.250  1.00  0.00     0.052 A 
HETATM    3  C   LIG     1      -0.736  -2.337   0.585  1.00  0.00     0.018 A 
HETATM    4  N   LIG     1       0.405  -3.111   0.468  1.00  0.00    -0.362 N 
HETATM    5  C   LIG     1       1.598  -2.609  -0.024  1.00  0.00     0.018 A 
HETATM    6  C   LIG     1       2.685  -3.672  -0.121  1.00  0.00     0.069 C 
HETATM    7  C   LIG     1       1.722  -1.306  -0.385  1.00  0.00     0.052 A 
HETATM    8  C   LIG     1      -1.942  -3.126   1.078  1.00  0.00     0.069 C 
HETATM    9  H   LIG     1       0.355  -4.089   0.714  1.00  0.00     0.165 HD
ENDROOT
BRANCH   1  10
HETATM   10  C   LIG     1       0.903   0.899   0.633  1.00  0.00    -0.012 A 
HETATM   11  C   LIG     1       0.753   2.259   0.222  1.00  0.00     0.110 A 
HETATM   12  C   LIG     1       1.085   3.293   1.127  1.00  0.00     0.037 A 
HETATM   13  C   LIG     1       1.566   3.005   2.416  1.00  0.00     0.002 A 
HETATM   14  C   LIG     1       1.714   1.669   2.822  1.00  0.00     0.001 A 
HETATM   15  C   LIG     1       1.380   0.629   1.938  1.00  0.00     0.011 A 
BRANCH  11  16
HETATM   16  N   LIG     1       0.240   2.655  -1.100  1.00  0.00    -0.115 N 
HETATM   17  O   LIG     1      -0.684   3.461  -1.124  1.00  0.00    -0.532 OA
HETATM   18  O   LIG     1       0.785   2.214  -2.104  1.00  0.00    -0.532 OA
ENDBRANCH  11  16
ENDBRANCH   1  10
BRANCH   7  19
HETATM   19  C   LIG     1       3.019  -0.765  -0.890  1.00  0.00     0.291 C 
HETATM   20  O   LIG     1       4.128  -1.184  -0.553  1.00  0.00    -0.260 OA
BRANCH  19  21
HETATM   21  O   LIG     1       2.847   0.269  -1.729  1.00  0.00    -0.323 OA
HETATM   22  C   LIG     1       3.974   0.939  -2.268  1.00  0.00     0.213 C 
ENDBRANCH  19  21
ENDBRANCH   7  19
BRANCH   2  23
HETATM   23  C   LIG     1      -1.966  -0.201   0.375  1.00  0.00     0.291 C 
HETATM   24  O   LIG     1      -2.763  -0.286   1.311  1.00  0.00    -0.260 OA
BRANCH  23  25
HETATM   25  O   LIG     1      -2.097   0.669  -0.641  1.00  0.00    -0.323 OA
HETATM   26  C   LIG     1      -3.222   1.531  -0.687  1.00  0.00     0.213 C 
ENDBRANCH  23  25
ENDBRANCH   2  23
TORSDOF 6
