REMARK  3 active torsions:
REMARK  status: ('A' for Active; 'I' for Inactive)
REMARK    1  A    between atoms: C_2  and  O_3 
REMARK    2  A    between atoms: C_2  and  C_5 
REMARK    3  A    between atoms: C_11  and  O_12 
ROOT
HETATM    1  C   LIG     1       0.385   0.484  -0.306  1.00  0.00     0.145 C 
HETATM    2  C   LIG     1       1.078  -0.836   0.158  1.00  0.00     0.204 C 
HETATM    3  N   LIG     1       2.414  -0.956  -0.458  1.00  0.00    -0.065 N 
HETATM    4  C   LIG     1       2.493  -0.980  -1.938  1.00  0.00     0.270 C 
HETATM    5  C   LIG     1       3.205   0.064   0.257  1.00  0.00     0.191 C 
HETATM    6  C   LIG     1       2.761   1.485  -0.172  1.00  0.00     0.065 C 
HETATM    7  C   LIG     1       1.251   1.722   0.075  1.00  0.00     0.135 C 
HETATM    8  C   LIG     1       2.842  -0.218   1.726  1.00  0.00     0.035 C 
HETATM    9  C   LIG     1       1.424  -0.825   1.662  1.00  0.00     0.036 C 
HETATM   10  H   LIG     1       2.777  -1.848  -0.153  1.00  0.00     0.280 HD
ENDROOT
BRANCH   1  11
HETATM   11  C   LIG     1      -1.063   0.568   0.210  1.00  0.00     0.267 C 
HETATM   12  O   LIG     1      -1.441   1.463   0.968  1.00  0.00    -0.265 OA
BRANCH  11  13
HETATM   13  O   LIG     1      -1.834  -0.423  -0.267  1.00  0.00    -0.326 OA
HETATM   14  C   LIG     1      -3.199  -0.490   0.110  1.00  0.00     0.213 C 
ENDBRANCH  11  13
ENDBRANCH   1  11
BRANCH   7  15
HETATM   15  O   LIG     1       0.849   2.859  -0.662  1.00  0.00    -0.395 OA
HETATM   16  H   LIG     1      -0.036   3.084  -0.413  1.00  0.00     0.210 HD
ENDBRANCH   7  15
TORSDOF 3
