REMARK  13 active torsions:
REMARK  status: ('A' for Active; 'I' for Inactive)
REMARK    1  A    between atoms: O_1  and  C_2 
REMARK    2  A    between atoms: O_1  and  C_17 
REMARK    3  A    between atoms: C_2  and  C_3 
REMARK    4  A    between atoms: C_3  and  C_4 
REMARK    5  A    between atoms: C_4  and  C_5 
REMARK    6  A    between atoms: C_5  and  C_6 
REMARK    7  A    between atoms: C_6  and  O_7 
REMARK    8  A    between atoms: O_7  and  C_8 
REMARK    9  A    between atoms: C_11  and  C_14 
REMARK   10  A    between atoms: C_14  and  N_15 
REMARK   11  A    between atoms: C_14  and  N_16 
REMARK   12  A    between atoms: C_20  and  C_23 
REMARK   13  A    between atoms: C_23  and  N_24 
ROOT
HETATM    1  C   LIG     1       1.616  -0.890   0.108  1.00  0.00     0.004 C 
ENDROOT
BRANCH   1   2
HETATM    2  C   LIG     1       1.423  -2.413   0.117  1.00  0.00     0.027 C 
BRANCH   2   3
HETATM    3  C   LIG     1      -0.055  -2.822   0.123  1.00  0.00     0.175 C 
BRANCH   3   4
HETATM    4  O   LIG     1      -0.133  -4.241   0.131  1.00  0.00    -0.351 OA
BRANCH   4   5
HETATM    5  C   LIG     1      -1.380  -4.827   0.139  1.00  0.00     0.068 A 
HETATM    6  C   LIG     1      -1.423  -6.236   0.146  1.00  0.00     0.037 A 
HETATM    7  C   LIG     1      -2.653  -6.923   0.154  1.00  0.00     0.018 A 
HETATM    8  C   LIG     1      -3.867  -6.203   0.154  1.00  0.00     0.007 A 
HETATM    9  C   LIG     1      -3.833  -4.791   0.147  1.00  0.00     0.018 A 
HETATM   10  C   LIG     1      -2.601  -4.108   0.139  1.00  0.00     0.037 A 
BRANCH   8  11
HETATM   11  C   LIG     1      -5.148  -6.913   0.163  1.00  0.00     0.102 C 
HETATM   12  N   LIG     1      -5.330  -8.020  -0.571  1.00  0.00    -0.385 N 
HETATM   13  H   LIG     1      -6.213  -8.509  -0.559  1.00  0.00     0.157 HD
HETATM   14  H   LIG     1      -4.579  -8.361  -1.153  1.00  0.00     0.157 HD
BRANCH  11  15
HETATM   15  N   LIG     1      -6.176  -6.476   0.904  1.00  0.00    -0.385 N 
HETATM   16  H   LIG     1      -6.062  -5.655   1.482  1.00  0.00     0.157 HD
HETATM   17  H   LIG     1      -7.059  -6.966   0.904  1.00  0.00     0.157 HD
ENDBRANCH  11  15
ENDBRANCH   8  11
ENDBRANCH   4   5
ENDBRANCH   3   4
ENDBRANCH   2   3
ENDBRANCH   1   2
BRANCH   1  18
HETATM   18  C   LIG     1       3.096  -0.483   0.101  1.00  0.00     0.027 C 
BRANCH  18  19
HETATM   19  C   LIG     1       3.291   1.038   0.092  1.00  0.00     0.175 C 
BRANCH  19  20
HETATM   20  O   LIG     1       4.684   1.317   0.087  1.00  0.00    -0.351 OA
BRANCH  20  21
HETATM   21  C   LIG     1       5.088   2.635   0.079  1.00  0.00     0.068 A 
HETATM   22  C   LIG     1       6.476   2.878   0.074  1.00  0.00     0.037 A 
HETATM   23  C   LIG     1       6.981   4.193   0.066  1.00  0.00     0.018 A 
HETATM   24  C   LIG     1       6.095   5.292   0.062  1.00  0.00     0.007 A 
HETATM   25  C   LIG     1       4.703   5.058   0.066  1.00  0.00     0.018 A 
HETATM   26  C   LIG     1       4.202   3.742   0.075  1.00  0.00     0.037 A 
BRANCH  24  27
HETATM   27  C   LIG     1       6.616   6.662   0.053  1.00  0.00     0.102 C 
BRANCH  27  28
HETATM   28  N   LIG     1       6.039   7.616  -0.691  1.00  0.00    -0.385 N 
HETATM   29  H   LIG     1       5.245   7.385  -1.270  1.00  0.00     0.157 HD
HETATM   30  H   LIG     1       6.399   8.559  -0.691  1.00  0.00     0.157 HD
ENDBRANCH  27  28
BRANCH  27  31
HETATM   31  N   LIG     1       7.684   7.000   0.789  1.00  0.00    -0.385 N 
HETATM   32  H   LIG     1       8.043   7.943   0.777  1.00  0.00     0.157 HD
HETATM   33  H   LIG     1       8.127   6.305   1.373  1.00  0.00     0.157 HD
ENDBRANCH  27  31
ENDBRANCH  24  27
ENDBRANCH  20  21
ENDBRANCH  19  20
ENDBRANCH  18  19
ENDBRANCH   1  18
TORSDOF 13
