REMARK  5 active torsions:
REMARK  status: ('A' for Active; 'I' for Inactive)
REMARK    1  A    between atoms: N_6  and  C_25 
REMARK    2  A    between atoms: C_8  and  C_11 
REMARK    3  A    between atoms: N_14  and  C_17 
REMARK    4  A    between atoms: C_17  and  C_18 
REMARK    5  A    between atoms: C_18  and  N_19 
ROOT
HETATM    1 CL   LIG     1      -7.131   1.864  -0.985  1.00  0.00    -0.084 Cl
HETATM    2  C   LIG     1      -5.817   0.810  -0.612  1.00  0.00     0.035 A 
HETATM    3  C   LIG     1      -5.795  -0.497  -1.133  1.00  0.00     0.026 A 
HETATM    4  C   LIG     1      -4.725  -1.355  -0.823  1.00  0.00     0.032 A 
HETATM    5  C   LIG     1      -3.678  -0.897   0.003  1.00  0.00     0.050 A 
HETATM    6  N   LIG     1      -2.526  -1.511   0.475  1.00  0.00    -0.321 N 
HETATM    7  C   LIG     1      -1.836  -0.620   1.285  1.00  0.00     0.106 A 
HETATM    8  C   LIG     1      -2.485   0.590   1.335  1.00  0.00    -0.025 A 
HETATM    9  C   LIG     1      -3.674   0.424   0.541  1.00  0.00     0.001 A 
HETATM   10  C   LIG     1      -4.769   1.261   0.215  1.00  0.00     0.038 A 
ENDROOT
BRANCH   8  11
HETATM   11  C   LIG     1      -2.078   1.837   2.088  1.00  0.00     0.024 C 
HETATM   12  C   LIG     1      -1.826   3.038   1.155  1.00  0.00     0.037 C 
HETATM   13  C   LIG     1      -0.491   2.916   0.403  1.00  0.00     0.235 C 
HETATM   14  N   LIG     1       0.644   2.808   1.357  1.00  0.00    -0.070 N 
HETATM   15  C   LIG     1       0.489   1.629   2.247  1.00  0.00     0.235 C 
HETATM   16  H   LIG     1       0.605   3.619   1.956  1.00  0.00     0.279 HD
HETATM   17  C   LIG     1      -0.851   1.663   3.011  1.00  0.00     0.037 C 
BRANCH  14  18
HETATM   18  C   LIG     1       1.971   2.837   0.692  1.00  0.00     0.254 C 
BRANCH  18  19
HETATM   19  C   LIG     1       2.378   4.258   0.255  1.00  0.00     0.155 C 
BRANCH  19  20
HETATM   20  N   LIG     1       3.701   4.269  -0.363  1.00  0.00    -0.331 N 
HETATM   21  C   LIG     1       4.011   3.807  -1.583  1.00  0.00     0.318 A 
HETATM   22  N   LIG     1       5.312   4.016  -1.792  1.00  0.00    -0.341 N 
HETATM   23  O   LIG     1       3.237   3.277  -2.377  1.00  0.00    -0.247 OA
HETATM   24  C   LIG     1       5.978   4.669  -0.683  1.00  0.00     0.144 A 
HETATM   25  H   LIG     1       5.794   3.757  -2.640  1.00  0.00     0.164 HD
HETATM   26  C   LIG     1       4.841   4.857   0.322  1.00  0.00     0.147 A 
ENDBRANCH  19  20
ENDBRANCH  18  19
ENDBRANCH  14  18
ENDBRANCH   8  11
BRANCH   6  27
HETATM   27  C   LIG     1      -2.111  -2.832   0.201  1.00  0.00     0.039 A 
HETATM   28  C   LIG     1      -2.025  -3.291  -1.132  1.00  0.00     0.033 A 
HETATM   29  C   LIG     1      -1.603  -4.608  -1.399  1.00  0.00     0.044 A 
HETATM   30  C   LIG     1      -1.265  -5.469  -0.338  1.00  0.00     0.116 A 
HETATM   31  C   LIG     1      -1.346  -5.013   0.992  1.00  0.00     0.044 A 
HETATM   32  F   LIG     1      -0.860  -6.735  -0.596  1.00  0.00    -0.206 F 
HETATM   33  C   LIG     1      -1.767  -3.696   1.262  1.00  0.00     0.033 A 
ENDBRANCH   6  27
TORSDOF 5
