REMARK  12 active torsions:
REMARK  status: ('A' for Active; 'I' for Inactive)
REMARK    1  A    between atoms: C_4  and  C_5 
REMARK    2  A    between atoms: C_7  and  O_8 
REMARK    3  A    between atoms: C_10  and  O_11 
REMARK    4  A    between atoms: C_19  and  O_20 
REMARK    5  A    between atoms: C_22  and  O_23 
REMARK    6  A    between atoms: O_23  and  C_24 
REMARK    7  A    between atoms: C_29  and  N_30 
REMARK    8  A    between atoms: C_33  and  O_34 
REMARK    9  A    between atoms: C_37  and  O_38 
REMARK   10  A    between atoms: O_38  and  C_39 
REMARK   11  A    between atoms: C_43  and  O_44 
REMARK   12  A    between atoms: C_45  and  O_46 
ROOT
HETATM    1  O   LIG     1      -1.730  -2.562   3.339  1.00  0.00    -0.265 OA
HETATM    2  C   LIG     1      -0.633  -2.438   2.793  1.00  0.00     0.265 C 
HETATM    3  O   LIG     1      -0.034  -3.387   2.048  1.00  0.00    -0.312 OA
HETATM    4  C   LIG     1      -0.666  -4.628   1.738  1.00  0.00     0.168 C 
HETATM    5  C   LIG     1      -0.165  -5.114   0.332  1.00  0.00     0.107 C 
HETATM    6  C   LIG     1      -0.864  -6.433  -0.069  1.00  0.00     0.051 C 
HETATM    7  C   LIG     1      -0.346  -4.010  -0.778  1.00  0.00     0.165 C 
HETATM    8  C   LIG     1       0.202  -4.317  -2.214  1.00  0.00     0.083 C 
HETATM    9  C   LIG     1      -0.522  -3.541  -3.340  1.00  0.00     0.020 C 
HETATM   10  C   LIG     1       1.739  -4.174  -2.332  1.00  0.00     0.137 C 
HETATM   11  O   LIG     1       2.460  -5.143  -2.098  1.00  0.00    -0.297 OA
HETATM   12  C   LIG     1       2.364  -2.831  -2.773  1.00  0.00     0.054 C 
HETATM   13  C   LIG     1       2.859  -2.942  -4.230  1.00  0.00     0.018 C 
HETATM   14  C   LIG     1       3.517  -2.354  -1.833  1.00  0.00     0.051 C 
HETATM   15  C   LIG     1       3.471  -0.864  -1.359  1.00  0.00     0.081 C 
HETATM   16  C   LIG     1       4.799  -0.488  -0.669  1.00  0.00     0.049 C 
HETATM   17  C   LIG     1       2.182  -0.472  -0.548  1.00  0.00     0.165 C 
HETATM   18  C   LIG     1       2.041  -0.864   0.966  1.00  0.00     0.043 C 
HETATM   19  C   LIG     1       2.535  -2.291   1.276  1.00  0.00     0.015 C 
HETATM   20  C   LIG     1       0.596  -0.534   1.501  1.00  0.00     0.144 C 
HETATM   21  C   LIG     1       0.193  -1.129   2.893  1.00  0.00     0.111 C 
HETATM   22  C   LIG     1      -0.508  -0.094   3.797  1.00  0.00     0.023 C 
ENDROOT
BRANCH  17  23
HETATM   23  O   LIG     1       1.780   0.890  -0.762  1.00  0.00    -0.350 OA
BRANCH  23  24
HETATM   24  C   LIG     1       2.498   1.976  -0.259  1.00  0.00     0.291 C 
HETATM   25  C   LIG     1       1.464   3.092  -0.001  1.00  0.00     0.204 C 
HETATM   26  C   LIG     1       2.167   4.341   0.581  1.00  0.00     0.223 C 
HETATM   27  C   LIG     1       3.277   4.763  -0.409  1.00  0.00     0.067 C 
HETATM   28  C   LIG     1       4.214   3.591  -0.751  1.00  0.00     0.122 C 
HETATM   29  O   LIG     1       3.466   2.441  -1.156  1.00  0.00    -0.354 OA
HETATM   30  C   LIG     1       5.231   3.276   0.362  1.00  0.00     0.040 C 
BRANCH  25  31
HETATM   31  O   LIG     1       0.754   3.425  -1.180  1.00  0.00    -0.389 OA
HETATM   32  H   LIG     1       0.537   2.620  -1.627  1.00  0.00     0.210 HD
ENDBRANCH  25  31
BRANCH  26  33
HETATM   33  N   LIG     1       1.193   5.441   0.875  1.00  0.00    -0.072 N 
HETATM   34  C   LIG     1       0.159   5.067   1.874  1.00  0.00     0.269 C 
HETATM   35  C   LIG     1       1.827   6.730   1.247  1.00  0.00     0.269 C 
HETATM   36  H   LIG     1       0.698   5.609   0.010  1.00  0.00     0.279 HD
ENDBRANCH  26  33
ENDBRANCH  23  24
ENDBRANCH  17  23
BRANCH  15  37
HETATM   37  O   LIG     1       3.434  -0.121  -2.564  1.00  0.00    -0.388 OA
HETATM   38  H   LIG     1       3.360   0.795  -2.339  1.00  0.00     0.210 HD
ENDBRANCH  15  37
BRANCH  20  39
HETATM   39  O   LIG     1      -0.421  -0.869   0.550  1.00  0.00    -0.355 OA
BRANCH  39  40
HETATM   40  C   LIG     1      -1.215   0.172   0.071  1.00  0.00     0.263 C 
HETATM   41  C   LIG     1      -2.218  -0.440  -0.918  1.00  0.00     0.101 C 
HETATM   42  C   LIG     1      -3.131   0.655  -1.519  1.00  0.00     0.089 C 
HETATM   43  C   LIG     1      -3.734   1.493  -0.361  1.00  0.00     0.181 C 
HETATM   44  C   LIG     1      -2.384   1.500  -2.582  1.00  0.00     0.049 C 
HETATM   45  C   LIG     1      -2.658   1.936   0.657  1.00  0.00     0.152 C 
HETATM   46  O   LIG     1      -1.928   0.794   1.089  1.00  0.00    -0.354 OA
HETATM   47  C   LIG     1      -3.252   2.581   1.917  1.00  0.00     0.042 C 
BRANCH  42  48
HETATM   48  O   LIG     1      -4.269   0.015  -2.109  1.00  0.00    -0.383 OA
HETATM   49  C   LIG     1      -4.055  -0.885  -3.192  1.00  0.00     0.202 C 
ENDBRANCH  42  48
BRANCH  43  50
HETATM   50  O   LIG     1      -4.372   2.646  -0.876  1.00  0.00    -0.390 OA
HETATM   51  H   LIG     1      -5.027   2.364  -1.497  1.00  0.00     0.210 HD
ENDBRANCH  43  50
ENDBRANCH  39  40
ENDBRANCH  20  39
BRANCH   7  52
HETATM   52  O   LIG     1      -1.732  -3.725  -0.852  1.00  0.00    -0.392 OA
HETATM   53  H   LIG     1      -2.010  -3.369  -0.021  1.00  0.00     0.210 HD
ENDBRANCH   7  52
BRANCH   4  54
HETATM   54  C   LIG     1      -0.470  -5.619   2.917  1.00  0.00     0.031 C 
HETATM   55  C   LIG     1      -1.752  -6.381   3.283  1.00  0.00     0.007 C 
ENDBRANCH   4  54
BRANCH   5  56
HETATM   56  O   LIG     1       1.202  -5.451   0.480  1.00  0.00    -0.385 OA
HETATM   57  H   LIG     1       1.550  -5.699  -0.365  1.00  0.00     0.210 HD
ENDBRANCH   5  56
TORSDOF 12
