REMARK  4 active torsions:
REMARK  status: ('A' for Active; 'I' for Inactive)
REMARK    1  A    between atoms: C_5  and  C_8 
REMARK    2  A    between atoms: C_8  and  N_9 
REMARK    3  A    between atoms: C_17  and  N_18 
REMARK    4  A    between atoms: N_18  and  C_19 
ROOT
HETATM    1  N   LIG     1      -0.177   0.900   1.357  1.00  0.00    -0.175 N 
HETATM    2  C   LIG     1       0.234   2.195   1.658  1.00  0.00     0.081 A 
HETATM    3  C   LIG     1      -0.433   3.345   2.124  1.00  0.00     0.032 A 
HETATM    4  C   LIG     1       0.300   4.530   2.330  1.00  0.00     0.002 A 
HETATM    5  C   LIG     1       1.685   4.559   2.071  1.00  0.00     0.002 A 
HETATM    6  C   LIG     1       2.349   3.406   1.603  1.00  0.00     0.034 A 
HETATM    7  C   LIG     1       1.634   2.206   1.389  1.00  0.00     0.103 A 
HETATM    8  N   LIG     1       2.067   0.974   0.940  1.00  0.00    -0.063 NA
HETATM    9  C   LIG     1       0.943   0.260   0.946  1.00  0.00     0.704 A 
ENDROOT
BRANCH   9  10
HETATM   10  N   LIG     1       0.862  -1.074   0.557  1.00  0.00    -0.219 N 
HETATM   11  H   LIG     1      -0.073  -1.451   0.616  1.00  0.00     0.178 HD
BRANCH  10  12
HETATM   12  C   LIG     1       1.825  -2.034   0.043  1.00  0.00     0.102 C 
HETATM   13  C   LIG     1       2.957  -2.315   1.050  1.00  0.00     0.053 C 
HETATM   14  C   LIG     1       3.968  -3.320   0.475  1.00  0.00     0.234 C 
HETATM   15  N   LIG     1       4.499  -2.846  -0.822  1.00  0.00    -0.075 N 
HETATM   16  C   LIG     1       3.438  -2.612  -1.827  1.00  0.00     0.234 C 
HETATM   17  H   LIG     1       4.992  -1.978  -0.669  1.00  0.00     0.277 HD
HETATM   18  H   LIG     1       5.149  -3.530  -1.183  1.00  0.00     0.277 HD
HETATM   19  C   LIG     1       2.413  -1.589  -1.310  1.00  0.00     0.053 C 
ENDBRANCH  10  12
ENDBRANCH   9  10
BRANCH   1  20
HETATM   20  C   LIG     1      -1.531   0.372   1.457  1.00  0.00     0.186 C 
BRANCH  20  21
HETATM   21  C   LIG     1      -2.197   0.298   0.094  1.00  0.00    -0.039 A 
HETATM   22  C   LIG     1      -2.551   1.483  -0.586  1.00  0.00     0.012 A 
HETATM   23  C   LIG     1      -3.162   1.418  -1.853  1.00  0.00     0.043 A 
HETATM   24  C   LIG     1      -3.422   0.167  -2.446  1.00  0.00     0.116 A 
HETATM   25  F   LIG     1      -4.009   0.104  -3.665  1.00  0.00    -0.206 F 
HETATM   26  C   LIG     1      -3.073  -1.018  -1.770  1.00  0.00     0.043 A 
HETATM   27  C   LIG     1      -2.463  -0.953  -0.502  1.00  0.00     0.012 A 
ENDBRANCH  20  21
ENDBRANCH   1  20
TORSDOF 4
