REMARK  11 active torsions:
REMARK  status: ('A' for Active; 'I' for Inactive)
REMARK       I    between atoms: C_2  and  N_3 
REMARK    1  A    between atoms: C_2  and  CA_11 
REMARK    2  A    between atoms: CA_4  and  C_8 
REMARK    3  A    between atoms: C_8  and  OXT_10 
REMARK    4  A    between atoms: CA_11  and  N_12 
REMARK    5  A    between atoms: N_12  and  C_17 
REMARK    6  A    between atoms: C_17  and  C_18 
REMARK    7  A    between atoms: C_17  and  C_26 
REMARK    8  A    between atoms: C_18  and  C_19 
REMARK    9  A    between atoms: C_19  and  C_20 
REMARK   10  A    between atoms: C_26  and  O_28 
REMARK   11  A    between atoms: O_28  and  C_29 
ROOT
ATOM      1  N   ALA A   1       2.701   0.510   0.089  1.00  0.00    -0.049 N 
ATOM      2  H1  ALA A   1       2.592   0.085   0.999  1.00  0.00     0.279 HD
ATOM      3  H2  ALA A   1       3.405   1.231   0.169  1.00  0.00     0.279 HD
ENDROOT
BRANCH   1   4
ATOM      4  CA  ALA A   1       3.219  -0.513  -0.850  1.00  0.00     0.274 C 
ATOM      5  CB  ALA A   1       3.696   0.134  -2.166  1.00  0.00     0.050 C 
BRANCH   4   6
ATOM      6  C   ALA A   1       4.386  -1.263  -0.181  1.00  0.00     0.251 C 
ATOM      7  O   ALA A   1       5.422  -0.632   0.034  1.00  0.00    -0.271 OA
ATOM      8  N   ALA A   1       4.282  -2.582   0.123  1.00  0.00    -0.336 N 
ATOM      9  CD  ALA A   1       5.471  -3.351   0.501  1.00  0.00     0.127 C 
ATOM     10  CA  ALA A   1       3.092  -3.458   0.070  1.00  0.00     0.185 C 
ATOM     11  CG  ALA A   1       5.053  -4.819   0.522  1.00  0.00     0.022 C 
ATOM     12  CB  ALA A   1       3.546  -4.796   0.681  1.00  0.00     0.038 C 
BRANCH  10  13
ATOM     13  C   ALA A   1       1.863  -2.954   0.852  1.00  0.00     0.163 C 
ATOM     14  O   ALA A   1       1.967  -2.114   1.744  1.00  0.00    -0.648 OA
BRANCH  13  15
ATOM     15  OXT ALA A   1       0.651  -3.483   0.525  1.00  0.00    -0.775 OA
ATOM     16  HXT ALA A   1      -0.051  -3.140   1.057  1.00  0.00     0.167 HD
ENDBRANCH  13  15
ENDBRANCH  10  13
ENDBRANCH   4   6
ENDBRANCH   1   4
BRANCH   1  17
HETATM   17  C   UNK A   0       1.412   1.152  -0.265  1.00  0.00     0.286 C 
BRANCH  17  18
HETATM   18  C   UNK A   0       0.215   0.227   0.056  1.00  0.00     0.048 C 
BRANCH  18  19
HETATM   19  C   UNK A   0      -1.161   0.760  -0.379  1.00  0.00     0.041 C 
BRANCH  19  20
HETATM   20  C   UNK A   0      -2.251  -0.271  -0.157  1.00  0.00    -0.058 A 
HETATM   21  C   UNK A   0      -2.950  -0.309   1.068  1.00  0.00     0.007 A 
HETATM   22  C   UNK A   0      -3.953  -1.276   1.279  1.00  0.00     0.001 A 
HETATM   23  C   UNK A   0      -4.258  -2.208   0.268  1.00  0.00     0.000 A 
HETATM   24  C   UNK A   0      -3.561  -2.173  -0.955  1.00  0.00     0.001 A 
HETATM   25  C   UNK A   0      -2.558  -1.206  -1.167  1.00  0.00     0.007 A 
ENDBRANCH  19  20
ENDBRANCH  18  19
ENDBRANCH  17  18
BRANCH  17  26
HETATM   26  C   UNK A   0       1.344   2.461   0.538  1.00  0.00     0.289 C 
HETATM   27  O   UNK A   0       1.881   2.636   1.633  1.00  0.00    -0.263 OA
BRANCH  26  28
HETATM   28  O   UNK A   0       0.604   3.371  -0.116  1.00  0.00    -0.320 OA
BRANCH  28  29
HETATM   29  C   UNK A   0       0.388   4.648   0.461  1.00  0.00     0.174 C 
HETATM   30  C   UNK A   0      -0.538   5.460  -0.448  1.00  0.00     0.034 C 
ENDBRANCH  28  29
ENDBRANCH  26  28
ENDBRANCH  17  26
ENDBRANCH   1  17
TORSDOF 11
