REMARK  7 active torsions:
REMARK  status: ('A' for Active; 'I' for Inactive)
REMARK    1  A    between atoms: S_1  and  N_4 
REMARK    2  A    between atoms: N_4  and  C_5 
REMARK    3  A    between atoms: C_8  and  C_11 
REMARK    4  A    between atoms: C_11  and  C_13 
REMARK    5  A    between atoms: N_16  and  C_19 
REMARK    6  A    between atoms: C_19  and  C_20 
REMARK    7  A    between atoms: C_20  and  C_21 
ROOT
HETATM    1  C   LIG     1      -1.399   0.517   0.972  1.00  0.00     0.064 C 
HETATM    2  C   LIG     1      -0.371  -0.543   1.423  1.00  0.00     0.040 C 
HETATM    3  C   LIG     1       0.956  -0.435   0.653  1.00  0.00     0.235 C 
HETATM    4  N   LIG     1       1.554   0.917   0.803  1.00  0.00    -0.071 N 
HETATM    5  C   LIG     1       0.632   1.976   0.315  1.00  0.00     0.235 C 
HETATM    6  C   LIG     1      -0.734   1.912   1.030  1.00  0.00     0.040 C 
HETATM    7  H   LIG     1       1.672   1.061   1.796  1.00  0.00     0.279 HD
ENDROOT
BRANCH   1   8
HETATM    8  C   LIG     1      -2.040   0.177  -0.394  1.00  0.00     0.163 C 
HETATM    9  O   LIG     1      -1.712   0.819  -1.392  1.00  0.00    -0.292 OA
BRANCH   8  10
HETATM   10  C   LIG     1      -3.037  -0.936  -0.457  1.00  0.00     0.010 A 
HETATM   11  C   LIG     1      -3.533  -1.340  -1.718  1.00  0.00     0.017 A 
HETATM   12  C   LIG     1      -4.480  -2.377  -1.822  1.00  0.00     0.031 A 
HETATM   13  C   LIG     1      -4.954  -3.032  -0.669  1.00  0.00     0.042 A 
HETATM   14  C   LIG     1      -4.467  -2.632   0.594  1.00  0.00     0.031 A 
HETATM   15  C   LIG     1      -3.521  -1.594   0.700  1.00  0.00     0.017 A 
BRANCH  13  16
HETATM   16  N   LIG     1      -5.894  -4.058  -0.820  1.00  0.00    -0.285 N 
HETATM   17  H   LIG     1      -6.187  -4.233  -1.770  1.00  0.00     0.178 HD
BRANCH  16  18
HETATM   18  S   LIG     1      -6.650  -5.057   0.381  1.00  0.00     0.227 S 
HETATM   19  O   LIG     1      -7.121  -4.159   1.446  1.00  0.00    -0.206 OA
HETATM   20  O   LIG     1      -7.593  -5.912  -0.355  1.00  0.00    -0.206 OA
HETATM   21  C   LIG     1      -5.261  -6.090   1.001  1.00  0.00     0.186 C 
ENDBRANCH  16  18
ENDBRANCH  13  16
ENDBRANCH   8  10
ENDBRANCH   1   8
BRANCH   4  22
HETATM   22  C   LIG     1       2.911   0.998   0.203  1.00  0.00     0.241 C 
BRANCH  22  23
HETATM   23  C   LIG     1       3.751   2.149   0.784  1.00  0.00     0.087 C 
BRANCH  23  24
HETATM   24  C   LIG     1       5.153   2.175   0.205  1.00  0.00     0.036 A 
HETATM   25  C   LIG     1       5.494   3.082  -0.821  1.00  0.00     0.027 A 
HETATM   26  C   LIG     1       6.808   3.057  -1.327  1.00  0.00     0.004 A 
HETATM   27  C   LIG     1       7.724   2.131  -0.792  1.00  0.00     0.027 A 
HETATM   28  C   LIG     1       7.284   1.264   0.230  1.00  0.00     0.031 A 
HETATM   29  N   LIG     1       6.025   1.282   0.722  1.00  0.00    -0.258 NA
HETATM   30  C   LIG     1       8.224   0.250   0.845  1.00  0.00     0.070 C 
ENDBRANCH  23  24
ENDBRANCH  22  23
ENDBRANCH   4  22
TORSDOF 7
