REMARK  7 active torsions:
REMARK  status: ('A' for Active; 'I' for Inactive)
REMARK    1  A    between atoms: O_1  and  C_2 
REMARK    2  A    between atoms: C_4  and  C_5 
REMARK    3  A    between atoms: C_5  and  C_6 
REMARK    4  A    between atoms: C_7  and  N_13 
REMARK    5  A    between atoms: C_9  and  N_12 
REMARK    6  A    between atoms: C_15  and  O_16 
REMARK    7  A    between atoms: C_18  and  O_19 
ROOT
HETATM    1  C   LIG     1      -0.707  -1.778  -0.965  1.00  0.00     0.082 C 
ENDROOT
BRANCH   1   2
HETATM    2  C   LIG     1       0.598  -1.020  -0.799  1.00  0.00    -0.048 A 
HETATM    3  C   LIG     1       0.733   0.270  -1.341  1.00  0.00     0.047 A 
HETATM    4  C   LIG     1       1.940   0.992  -1.185  1.00  0.00     0.104 A 
HETATM    5  C   LIG     1       3.015   0.411  -0.473  1.00  0.00     0.135 A 
HETATM    6  C   LIG     1       2.901  -0.907   0.053  1.00  0.00     0.104 A 
HETATM    7  C   LIG     1       1.678  -1.605  -0.113  1.00  0.00     0.047 A 
BRANCH   4   8
HETATM    8  O   LIG     1       2.135   2.263  -1.686  1.00  0.00    -0.353 OA
HETATM    9  C   LIG     1       1.072   2.882  -2.395  1.00  0.00     0.210 C 
ENDBRANCH   4   8
BRANCH   5  10
HETATM   10  O   LIG     1       4.154   1.184  -0.366  1.00  0.00    -0.351 OA
HETATM   11  C   LIG     1       4.868   1.159   0.862  1.00  0.00     0.210 C 
ENDBRANCH   5  10
BRANCH   6  12
HETATM   12  O   LIG     1       3.994  -1.472   0.680  1.00  0.00    -0.353 OA
HETATM   13  C   LIG     1       3.878  -2.780   1.220  1.00  0.00     0.210 C 
ENDBRANCH   6  12
ENDBRANCH   1   2
BRANCH   1  14
HETATM   14  C   LIG     1      -1.831  -1.191  -0.126  1.00  0.00     0.010 A 
HETATM   15  C   LIG     1      -2.787  -0.327  -0.702  1.00  0.00     0.147 A 
HETATM   16  N   LIG     1      -3.792   0.211   0.022  1.00  0.00    -0.075 NA
HETATM   17  C   LIG     1      -3.838  -0.116   1.312  1.00  0.00     0.721 A 
HETATM   18  N   LIG     1      -2.998  -0.918   1.968  1.00  0.00    -0.045 NA
HETATM   19  C   LIG     1      -1.990  -1.459   1.254  1.00  0.00     0.148 A 
BRANCH  17  20
HETATM   20  N   LIG     1      -4.859   0.430   2.045  1.00  0.00    -0.231 N 
HETATM   21  H   LIG     1      -4.941   0.231   3.031  1.00  0.00     0.174 HD
HETATM   22  H   LIG     1      -5.521   1.055   1.608  1.00  0.00     0.174 HD
ENDBRANCH  17  20
BRANCH  19  23
HETATM   23  N   LIG     1      -1.117  -2.292   1.950  1.00  0.00    -0.383 N 
HETATM   24  H   LIG     1      -0.313  -2.707   1.504  1.00  0.00     0.157 HD
HETATM   25  H   LIG     1      -1.229  -2.449   2.941  1.00  0.00     0.157 HD
ENDBRANCH  19  23
ENDBRANCH   1  14
TORSDOF 7
