REMARK  9 active torsions:
REMARK  status: ('A' for Active; 'I' for Inactive)
REMARK    1  A    between atoms: C_2  and  O_3 
REMARK    2  A    between atoms: C_2  and  C_23 
REMARK    3  A    between atoms: O_3  and  C_4 
REMARK    4  A    between atoms: C_4  and  C_5 
REMARK    5  A    between atoms: C_4  and  C_12 
REMARK    6  A    between atoms: C_4  and  C_18 
REMARK    7  A    between atoms: C_5  and  C_6 
REMARK    8  A    between atoms: C_18  and  C_20 
REMARK    9  A    between atoms: C_20  and  N_21 
ROOT
HETATM    1  C   LIG     1      -0.130  -1.021   0.095  1.00  0.00     0.106 C 
ENDROOT
BRANCH   1   2
HETATM    2  O   LIG     1      -0.765  -2.076   0.860  1.00  0.00    -0.304 OA
BRANCH   2   3
HETATM    3  C   LIG     1      -1.903  -2.752   0.529  1.00  0.00     0.259 C 
HETATM    4  O   LIG     1      -2.608  -2.559  -0.462  1.00  0.00    -0.265 OA
BRANCH   3   5
HETATM    5  C   LIG     1      -2.240  -3.822   1.570  1.00  0.00     0.106 C 
HETATM    6  C   LIG     1      -3.507  -4.625   1.241  1.00  0.00     0.015 C 
ENDBRANCH   3   5
ENDBRANCH   2   3
ENDBRANCH   1   2
BRANCH   1   7
HETATM    7  C   LIG     1      -1.237   0.088  -0.120  1.00  0.00     0.082 C 
BRANCH   7   8
HETATM    8  C   LIG     1      -0.887   1.549   0.140  1.00  0.00    -0.055 A 
HETATM    9  C   LIG     1      -0.700   2.443  -0.938  1.00  0.00     0.007 A 
HETATM   10  C   LIG     1      -0.385   3.793  -0.693  1.00  0.00     0.001 A 
HETATM   11  C   LIG     1      -0.267   4.262   0.630  1.00  0.00     0.000 A 
HETATM   12  C   LIG     1      -0.472   3.381   1.708  1.00  0.00     0.001 A 
HETATM   13  C   LIG     1      -0.789   2.031   1.464  1.00  0.00     0.007 A 
ENDBRANCH   7   8
ENDBRANCH   1   7
BRANCH   1  14
HETATM   14  C   LIG     1       1.091  -0.516   0.915  1.00  0.00    -0.022 A 
HETATM   15  C   LIG     1       1.948   0.500   0.422  1.00  0.00     0.010 A 
HETATM   16  C   LIG     1       3.059   0.947   1.162  1.00  0.00     0.001 A 
HETATM   17  C   LIG     1       3.343   0.381   2.416  1.00  0.00     0.000 A 
HETATM   18  C   LIG     1       2.509  -0.628   2.927  1.00  0.00     0.001 A 
HETATM   19  C   LIG     1       1.397  -1.071   2.186  1.00  0.00     0.010 A 
ENDBRANCH   1  14
BRANCH   1  20
HETATM   20  C   LIG     1       0.345  -1.697  -1.255  1.00  0.00     0.047 C 
HETATM   21  C   LIG     1       1.367  -2.833  -1.014  1.00  0.00     0.015 C 
BRANCH  20  22
HETATM   22  C   LIG     1       0.889  -0.737  -2.339  1.00  0.00     0.239 C 
BRANCH  22  23
HETATM   23  N   LIG     1       0.830  -1.345  -3.685  1.00  0.00    -0.079 N 
HETATM   24  C   LIG     1       1.335  -0.469  -4.759  1.00  0.00     0.267 C 
HETATM   25  H   LIG     1       1.379  -2.193  -3.678  1.00  0.00     0.276 HD
HETATM   26  H   LIG     1      -0.130  -1.584  -3.890  1.00  0.00     0.276 HD
ENDBRANCH  22  23
ENDBRANCH  20  22
ENDBRANCH   1  20
TORSDOF 9
