REMARK  9 active torsions:
REMARK  status: ('A' for Active; 'I' for Inactive)
REMARK    1  A    between atoms: C_4  and  C_5 
REMARK       I    between atoms: C_5  and  N_7 
REMARK    2  A    between atoms: N_7  and  C_8 
REMARK    3  A    between atoms: C_8  and  C_9 
REMARK    4  A    between atoms: C_9  and  C_10 
REMARK    5  A    between atoms: C_13  and  S_14 
REMARK    6  A    between atoms: S_14  and  O_25 
REMARK    7  A    between atoms: S_14  and  O_26 
REMARK       I    between atoms: N_15  and  C_16 
REMARK       I    between atoms: C_16  and  N_18 
REMARK    8  A    between atoms: N_18  and  C_19 
REMARK    9  A    between atoms: C_29  and  O_30 
ROOT
HETATM    1  C   LIG     1       1.354  -0.959  -0.409  1.00  0.00    -0.057 A 
HETATM    2  C   LIG     1       1.141  -2.198   0.230  1.00  0.00     0.009 A 
HETATM    3  C   LIG     1       0.026  -2.989  -0.112  1.00  0.00     0.023 A 
HETATM    4  C   LIG     1      -0.873  -2.538  -1.099  1.00  0.00     0.051 A 
HETATM    5  C   LIG     1      -0.668  -1.300  -1.741  1.00  0.00     0.023 A 
HETATM    6  C   LIG     1       0.448  -0.513  -1.395  1.00  0.00     0.009 A 
ENDROOT
BRANCH   4   7
HETATM    7  S   LIG     1      -2.308  -3.530  -1.511  1.00  0.00     0.108 S 
HETATM    8  N   LIG     1      -2.890  -4.096  -0.104  1.00  0.00    -0.128 NA
HETATM    9  C   LIG     1      -3.550  -3.349   0.814  1.00  0.00     0.351 C 
HETATM   10  O   LIG     1      -3.975  -3.797   1.878  1.00  0.00    -0.244 OA
HETATM   11  N   LIG     1      -3.734  -2.050   0.527  1.00  0.00    -0.336 N 
HETATM   12  H   LIG     1      -3.392  -1.735  -0.369  1.00  0.00     0.164 HD
BRANCH  11  13
HETATM   13  C   LIG     1      -4.375  -1.050   1.375  1.00  0.00     0.086 C 
HETATM   14  C   LIG     1      -3.814   0.342   1.030  1.00  0.00     0.025 C 
HETATM   15  C   LIG     1      -4.506   1.446   1.847  1.00  0.00     0.002 C 
HETATM   16  C   LIG     1      -6.030   1.406   1.659  1.00  0.00     0.000 C 
HETATM   17  C   LIG     1      -6.596   0.020   2.008  1.00  0.00     0.002 C 
HETATM   18  C   LIG     1      -5.906  -1.086   1.192  1.00  0.00     0.025 C 
ENDBRANCH  11  13
BRANCH   7  19
HETATM   19  O   LIG     1      -1.693  -4.685  -2.563  1.00  0.00    -0.307 OA
HETATM   20  H   LIG     1      -1.703  -5.532  -2.144  1.00  0.00     0.230 HD
ENDBRANCH   7  19
BRANCH   7  21
HETATM   21  O   LIG     1      -3.310  -2.494  -2.377  1.00  0.00    -0.307 OA
HETATM   22  H   LIG     1      -4.063  -2.969  -2.695  1.00  0.00     0.230 HD
ENDBRANCH   7  21
ENDBRANCH   4   7
BRANCH   1  23
HETATM   23  C   LIG     1       2.556  -0.111  -0.041  1.00  0.00     0.058 C 
BRANCH  23  24
HETATM   24  C   LIG     1       3.792  -0.464  -0.883  1.00  0.00     0.127 C 
BRANCH  24  25
HETATM   25  N   LIG     1       4.930   0.380  -0.541  1.00  0.00    -0.356 N 
HETATM   26  C   LIG     1       5.742   0.195   0.512  1.00  0.00     0.254 C 
HETATM   27  O   LIG     1       5.632  -0.751   1.292  1.00  0.00    -0.268 OA
HETATM   28  H   LIG     1       5.104   1.181  -1.132  1.00  0.00     0.162 HD
BRANCH  26  29
HETATM   29  C   LIG     1       6.869   1.182   0.657  1.00  0.00     0.066 A 
HETATM   30  C   LIG     1       8.142   0.691   1.026  1.00  0.00     0.043 A 
HETATM   31  C   LIG     1       9.232   1.564   1.188  1.00  0.00     0.035 A 
HETATM   32 CL   LIG     1      10.780   0.944   1.628  1.00  0.00    -0.084 Cl
HETATM   33  C   LIG     1       9.055   2.944   0.990  1.00  0.00     0.026 A 
HETATM   34  C   LIG     1       7.790   3.448   0.639  1.00  0.00     0.039 A 
HETATM   35  C   LIG     1       6.678   2.581   0.474  1.00  0.00     0.084 A 
BRANCH  35  36
HETATM   36  O   LIG     1       5.415   3.043   0.159  1.00  0.00    -0.355 OA
HETATM   37  C   LIG     1       5.219   4.439  -0.014  1.00  0.00     0.210 C 
ENDBRANCH  35  36
ENDBRANCH  26  29
ENDBRANCH  24  25
ENDBRANCH  23  24
ENDBRANCH   1  23
TORSDOF 9
