REMARK  3 active torsions:
REMARK  status: ('A' for Active; 'I' for Inactive)
REMARK    1  A    between atoms: C_7  and  O_8 
REMARK    2  A    between atoms: O_8  and  C_9 
REMARK    3  A    between atoms: C_9  and  C_11 
ROOT
HETATM    1  O   LIG     1       2.191   5.321   8.227  1.00  0.00    -0.296 OA
HETATM    2  C   LIG     1       1.495   4.424   7.758  1.00  0.00     0.157 C 
HETATM    3  C   LIG     1      -0.034   4.521   7.634  1.00  0.00     0.314 C 
HETATM    4  N   LIG     1      -0.516   3.246   7.022  1.00  0.00    -0.056 N 
HETATM    5  C   LIG     1      -0.182   2.069   7.882  1.00  0.00     0.192 C 
HETATM    6  C   LIG     1      -0.824   0.791   7.300  1.00  0.00     0.066 C 
HETATM    7  C   LIG     1      -0.379   0.536   5.849  1.00  0.00     0.136 C 
HETATM    8  C   LIG     1      -0.571   1.805   4.993  1.00  0.00     0.066 C 
HETATM    9  C   LIG     1       0.063   3.045   5.657  1.00  0.00     0.192 C 
HETATM   10  C   LIG     1       1.620   2.970   5.763  1.00  0.00     0.045 C 
HETATM   11  C   LIG     1       2.066   3.099   7.241  1.00  0.00     0.061 C 
HETATM   12  C   LIG     1       1.370   1.972   8.044  1.00  0.00     0.045 C 
HETATM   13  H   LIG     1      -1.522   3.302   6.936  1.00  0.00     0.281 HD
ENDROOT
BRANCH   7  14
HETATM   14  O   LIG     1      -1.145  -0.539   5.322  1.00  0.00    -0.312 OA
BRANCH  14  15
HETATM   15  C   LIG     1      -0.647  -1.341   4.361  1.00  0.00     0.292 C 
HETATM   16  O   LIG     1       0.470  -1.203   3.860  1.00  0.00    -0.259 OA
BRANCH  15  17
HETATM   17  C   LIG     1      -1.581  -2.413   3.953  1.00  0.00     0.049 A 
HETATM   18  C   LIG     1      -2.808  -2.691   4.400  1.00  0.00     0.006 A 
HETATM   19  C   LIG     1      -3.239  -3.848   3.635  1.00  0.00     0.062 A 
HETATM   20  C   LIG     1      -3.698  -2.113   5.401  1.00  0.00     0.014 A 
HETATM   21  N   LIG     1      -2.384  -4.265   2.792  1.00  0.00    -0.284 NA
HETATM   22  C   LIG     1      -4.575  -4.414   3.891  1.00  0.00     0.032 A 
HETATM   23  C   LIG     1      -1.205  -3.408   2.877  1.00  0.00     0.195 A 
HETATM   24  C   LIG     1      -5.355  -3.834   4.832  1.00  0.00     0.002 A 
HETATM   25  C   LIG     1      -4.915  -2.667   5.602  1.00  0.00     0.001 A 
ENDBRANCH  15  17
ENDBRANCH  14  15
ENDBRANCH   7  14
TORSDOF 3
