REMARK  4 active torsions:
REMARK  status: ('A' for Active; 'I' for Inactive)
REMARK    1  A    between atoms: C_9  and  C_10 
REMARK    2  A    between atoms: N_13  and  C_16 
REMARK    3  A    between atoms: C_16  and  C_17 
REMARK    4  A    between atoms: C_17  and  C_18 
ROOT
HETATM    1  C   LIG     1      -3.128   2.256   0.432  1.00  0.00     0.044 C 
HETATM    2  C   LIG     1      -2.489   1.786   1.754  1.00  0.00     0.038 C 
HETATM    3  C   LIG     1      -1.631   0.513   1.585  1.00  0.00     0.235 C 
HETATM    4  N   LIG     1      -0.583   0.695   0.548  1.00  0.00    -0.071 N 
HETATM    5  C   LIG     1      -1.179   1.095  -0.754  1.00  0.00     0.235 C 
HETATM    6  C   LIG     1      -1.990   2.393  -0.605  1.00  0.00     0.038 C 
HETATM    7  H   LIG     1      -0.010   1.466   0.862  1.00  0.00     0.279 HD
ENDROOT
BRANCH   4   8
HETATM    8  C   LIG     1       0.316  -0.484   0.444  1.00  0.00     0.236 C 
BRANCH   8   9
HETATM    9  C   LIG     1       1.707  -0.122  -0.118  1.00  0.00     0.048 C 
BRANCH   9  10
HETATM   10  C   LIG     1       2.663  -1.331  -0.284  1.00  0.00     0.127 C 
HETATM   11  C   LIG     1       3.322  -1.771   1.026  1.00  0.00     0.024 C 
HETATM   12  N   LIG     1       4.503  -1.444   1.380  1.00  0.00    -0.243 NA
HETATM   13  C   LIG     1       2.481  -2.656   1.925  1.00  0.00     0.066 C 
HETATM   14  C   LIG     1       5.381  -0.771   0.583  1.00  0.00     0.108 C 
HETATM   15  N   LIG     1       5.133  -0.494  -0.678  1.00  0.00    -0.305 N 
HETATM   16  C   LIG     1       6.704  -0.393   1.208  1.00  0.00     0.079 C 
HETATM   17  C   LIG     1       3.772  -0.988  -1.284  1.00  0.00     0.235 C 
HETATM   18  C   LIG     1       6.043   0.293  -1.559  1.00  0.00     0.133 C 
HETATM   19  O   LIG     1       3.660  -1.000  -2.509  1.00  0.00    -0.272 OA
HETATM   20  C   LIG     1       7.455   0.512  -1.000  1.00  0.00     0.021 C 
HETATM   21  C   LIG     1       7.369   0.795   0.497  1.00  0.00     0.009 C 
ENDBRANCH   9  10
ENDBRANCH   8   9
ENDBRANCH   4   8
BRANCH   1  22
HETATM   22  C   LIG     1      -4.286   1.408  -0.084  1.00  0.00     0.079 A 
HETATM   23  C   LIG     1      -5.028   0.300   0.425  1.00  0.00     0.027 A 
HETATM   24  C   LIG     1      -4.952  -0.444   1.629  1.00  0.00     0.019 A 
HETATM   25  C   LIG     1      -6.021  -0.042  -0.502  1.00  0.00     0.116 A 
HETATM   26  C   LIG     1      -5.854  -1.511   1.843  1.00  0.00     0.043 A 
HETATM   27  C   LIG     1      -6.834  -1.840   0.878  1.00  0.00     0.119 A 
HETATM   28  F   LIG     1      -7.688  -2.866   1.104  1.00  0.00    -0.206 F 
HETATM   29  C   LIG     1      -6.928  -1.096  -0.315  1.00  0.00     0.082 A 
HETATM   30  O   LIG     1      -5.885   0.858  -1.541  1.00  0.00    -0.212 OA
HETATM   31  N   LIG     1      -4.825   1.756  -1.254  1.00  0.00    -0.131 NA
ENDBRANCH   1  22
TORSDOF 4
