REMARK  2 active torsions:
REMARK  status: ('A' for Active; 'I' for Inactive)
REMARK    1  A    between atoms: C_7  and  C_24 
REMARK    2  A    between atoms: C_16  and  N_17 
ROOT
HETATM    1  F   LIG     1      -1.845   1.943   0.562  1.00  0.00    -0.204 F 
HETATM    2  C   LIG     1      -0.615   1.414   0.361  1.00  0.00     0.146 A 
HETATM    3  C   LIG     1       0.506   2.223   0.622  1.00  0.00     0.062 A 
HETATM    4  C   LIG     1       1.825   1.743   0.474  1.00  0.00     0.048 A 
HETATM    5  C   LIG     1       3.008   2.611   0.737  1.00  0.00     0.203 A 
HETATM    6  O   LIG     1       2.864   3.759   1.160  1.00  0.00    -0.286 OA
HETATM    7  C   LIG     1       4.343   2.014   0.453  1.00  0.00     0.107 A 
HETATM    8  C   LIG     1       4.361   0.716   0.078  1.00  0.00     0.114 A 
HETATM    9  N   LIG     1       3.249  -0.114  -0.061  1.00  0.00    -0.346 N 
HETATM   10  C   LIG     1       1.915   0.398   0.050  1.00  0.00     0.085 A 
HETATM   11  C   LIG     1       0.836  -0.469  -0.266  1.00  0.00     0.126 A 
HETATM   12  O   LIG     1       0.993  -1.754  -0.738  1.00  0.00    -0.344 OA
HETATM   13  C   LIG     1       2.300  -2.083  -1.165  1.00  0.00     0.201 C 
HETATM   14  C   LIG     1       3.296  -1.584  -0.115  1.00  0.00     0.110 C 
HETATM   15  C   LIG     1       4.694  -2.175  -0.383  1.00  0.00     0.035 C 
HETATM   16  C   LIG     1      -0.462   0.076  -0.083  1.00  0.00     0.105 A 
ENDROOT
BRANCH  16  17
HETATM   17  N   LIG     1      -1.586  -0.731  -0.352  1.00  0.00    -0.373 N 
HETATM   18  C   LIG     1      -1.752  -1.980   0.382  1.00  0.00     0.151 C 
HETATM   19  C   LIG     1      -3.003  -1.919   1.277  1.00  0.00     0.254 C 
HETATM   20  N   LIG     1      -4.198  -1.498   0.501  1.00  0.00    -0.072 N 
HETATM   21  C   LIG     1      -3.996  -0.191  -0.174  1.00  0.00     0.254 C 
HETATM   22  C   LIG     1      -5.436  -1.532   1.308  1.00  0.00     0.269 C 
HETATM   23  H   LIG     1      -4.313  -2.182  -0.234  1.00  0.00     0.279 HD
HETATM   24  C   LIG     1      -2.744  -0.213  -1.073  1.00  0.00     0.151 C 
ENDBRANCH  16  17
BRANCH   7  25
HETATM   25  C   LIG     1       5.691   2.831   0.545  1.00  0.00     0.214 C 
HETATM   26  O   LIG     1       5.608   4.076   0.626  1.00  0.00    -0.644 OA
HETATM   27  O   LIG     1       6.748   2.162   0.500  1.00  0.00    -0.644 OA
ENDBRANCH   7  25
TORSDOF 2
