REMARK  10 active torsions:
REMARK  status: ('A' for Active; 'I' for Inactive)
REMARK    1  A    between atoms: C_7  and  O_8 
REMARK    2  A    between atoms: O_8  and  C_9 
REMARK    3  A    between atoms: C_9  and  C_10 
REMARK    4  A    between atoms: C_10  and  O_11 
REMARK    5  A    between atoms: C_10  and  C_12 
REMARK    6  A    between atoms: C_12  and  N_13 
REMARK    7  A    between atoms: N_13  and  C_14 
REMARK    8  A    between atoms: C_14  and  C_15 
REMARK    9  A    between atoms: C_18  and  O_19 
REMARK   10  A    between atoms: C_21  and  O_22 
ROOT
HETATM    1  C   LIG     1       1.036  -0.972  -1.019  1.00  0.00     0.168 C 
ENDROOT
BRANCH   1   2
HETATM    2  C   LIG     1       2.489  -0.527  -1.244  1.00  0.00     0.209 C 
BRANCH   2   3
HETATM    3  O   LIG     1       2.897   0.277  -0.146  1.00  0.00    -0.349 OA
BRANCH   3   4
HETATM    4  C   LIG     1       4.175   0.794  -0.152  1.00  0.00     0.069 A 
HETATM    5  C   LIG     1       5.123   0.567  -1.184  1.00  0.00     0.039 A 
HETATM    6  C   LIG     1       6.411   1.134  -1.112  1.00  0.00     0.033 A 
HETATM    7  C   LIG     1       6.761   1.933  -0.008  1.00  0.00     0.045 A 
HETATM    8  N   LIG     1       8.052   2.515   0.087  1.00  0.00    -0.323 N 
HETATM    9  C   LIG     1       5.829   2.165   1.021  1.00  0.00    -0.007 A 
HETATM   10  C   LIG     1       8.482   3.295   1.104  1.00  0.00     0.245 A 
HETATM   11  H   LIG     1       8.698   2.331  -0.667  1.00  0.00     0.169 HD
HETATM   12  O   LIG     1       9.619   3.759   1.105  1.00  0.00    -0.268 OA
HETATM   13  C   LIG     1       7.507   3.533   2.173  1.00  0.00     0.075 A 
HETATM   14  C   LIG     1       6.266   3.006   2.136  1.00  0.00     0.019 A 
HETATM   15  C   LIG     1       4.542   1.597   0.948  1.00  0.00     0.050 A 
ENDBRANCH   3   4
ENDBRANCH   2   3
ENDBRANCH   1   2
BRANCH   1  16
HETATM   16  O   LIG     1       0.695  -1.911  -2.019  1.00  0.00    -0.392 OA
HETATM   17  H   LIG     1       1.299  -2.638  -1.972  1.00  0.00     0.210 HD
ENDBRANCH   1  16
BRANCH   1  18
HETATM   18  C   LIG     1       0.044   0.201  -1.096  1.00  0.00     0.266 C 
BRANCH  18  19
HETATM   19  N   LIG     1      -1.324  -0.237  -0.756  1.00  0.00    -0.069 N 
HETATM   20  H   LIG     1      -1.578  -0.983  -1.390  1.00  0.00     0.277 HD
HETATM   21  H   LIG     1      -1.325  -0.604   0.185  1.00  0.00     0.277 HD
BRANCH  19  22
HETATM   22  C   LIG     1      -2.340   0.828  -0.849  1.00  0.00     0.271 C 
BRANCH  22  23
HETATM   23  C   LIG     1      -3.709   0.287  -0.487  1.00  0.00    -0.030 A 
HETATM   24  C   LIG     1      -4.151   0.309   0.848  1.00  0.00     0.048 A 
HETATM   25  C   LIG     1      -5.421  -0.185   1.211  1.00  0.00     0.102 A 
HETATM   26  C   LIG     1      -6.267  -0.748   0.208  1.00  0.00     0.101 A 
HETATM   27  C   LIG     1      -5.809  -0.760  -1.137  1.00  0.00     0.040 A 
HETATM   28  C   LIG     1      -4.547  -0.246  -1.482  1.00  0.00     0.012 A 
BRANCH  25  29
HETATM   29  O   LIG     1      -5.713  -0.090   2.557  1.00  0.00    -0.353 OA
HETATM   30  C   LIG     1      -7.066  -0.061   2.985  1.00  0.00     0.210 C 
ENDBRANCH  25  29
BRANCH  26  31
HETATM   31  O   LIG     1      -7.485  -1.286   0.570  1.00  0.00    -0.353 OA
HETATM   32  C   LIG     1      -8.325  -1.837  -0.435  1.00  0.00     0.210 C 
ENDBRANCH  26  31
ENDBRANCH  22  23
ENDBRANCH  19  22
ENDBRANCH  18  19
ENDBRANCH   1  18
TORSDOF 10
