REMARK  6 active torsions:
REMARK  status: ('A' for Active; 'I' for Inactive)
REMARK    1  A    between atoms: N_1  and  C_2 
REMARK    2  A    between atoms: N_1  and  C_18 
REMARK    3  A    between atoms: C_2  and  C_4 
REMARK    4  A    between atoms: C_4  and  C_5 
REMARK    5  A    between atoms: C_5  and  C_6 
REMARK    6  A    between atoms: C_5  and  C_12 
ROOT
HETATM    1  C   LIG     1       0.757  -1.155  -0.368  1.00  0.00     0.053 C 
ENDROOT
BRANCH   1   2
HETATM    2  C   LIG     1       1.012   0.003   0.633  1.00  0.00     0.046 C 
BRANCH   2   3
HETATM    3  C   LIG     1       0.438   1.387   0.243  1.00  0.00     0.183 C 
HETATM    4  C   LIG     1      -1.086   1.475   0.454  1.00  0.00     0.040 C 
BRANCH   3   5
HETATM    5  N   LIG     1       1.158   2.421   1.037  1.00  0.00    -0.064 N 
HETATM    6  H   LIG     1       0.902   2.324   2.010  1.00  0.00     0.278 HD
HETATM    7  H   LIG     1       2.135   2.178   0.957  1.00  0.00     0.278 HD
BRANCH   5   8
HETATM    8  C   LIG     1       1.087   3.867   0.673  1.00  0.00     0.115 C 
HETATM    9  C   LIG     1       2.421   4.501   1.107  1.00  0.00     0.045 C 
HETATM   10  C   LIG     1       0.915   4.104  -0.843  1.00  0.00     0.045 C 
HETATM   11  C   LIG     1      -0.042   4.562   1.460  1.00  0.00     0.045 C 
ENDBRANCH   5   8
ENDBRANCH   3   5
ENDBRANCH   2   3
ENDBRANCH   1   2
BRANCH   1  12
HETATM   12  C   LIG     1       1.776  -2.283  -0.229  1.00  0.00    -0.050 A 
HETATM   13  C   LIG     1       2.119  -2.807   1.039  1.00  0.00     0.008 A 
HETATM   14  C   LIG     1       3.058  -3.851   1.148  1.00  0.00     0.001 A 
HETATM   15  C   LIG     1       3.661  -4.381  -0.009  1.00  0.00     0.000 A 
HETATM   16  C   LIG     1       3.322  -3.868  -1.275  1.00  0.00     0.001 A 
HETATM   17  C   LIG     1       2.383  -2.824  -1.384  1.00  0.00     0.008 A 
ENDBRANCH   1  12
BRANCH   1  18
HETATM   18  C   LIG     1      -0.663  -1.712  -0.341  1.00  0.00    -0.050 A 
HETATM   19  C   LIG     1      -1.402  -1.804  -1.542  1.00  0.00     0.008 A 
HETATM   20  C   LIG     1      -2.715  -2.314  -1.534  1.00  0.00     0.001 A 
HETATM   21  C   LIG     1      -3.298  -2.738  -0.325  1.00  0.00     0.000 A 
HETATM   22  C   LIG     1      -2.567  -2.656   0.875  1.00  0.00     0.001 A 
HETATM   23  C   LIG     1      -1.254  -2.146   0.867  1.00  0.00     0.008 A 
ENDBRANCH   1  18
TORSDOF 6
