REMARK  2 active torsions:
REMARK  status: ('A' for Active; 'I' for Inactive)
REMARK    1  A    between atoms: N_3  and  C_4 
REMARK    2  A    between atoms: C_4  and  C_5 
ROOT
HETATM    1  O   LIG     1      -0.734  -2.798   0.660  1.00  0.00    -0.246 OA
HETATM    2  C   LIG     1      -0.865  -1.586   0.470  1.00  0.00     0.333 A 
HETATM    3  N   LIG     1       0.213  -0.737   0.596  1.00  0.00    -0.281 N 
HETATM    4  C   LIG     1       0.062   0.657   0.373  1.00  0.00     0.167 A 
HETATM    5  N   LIG     1       0.989   1.698   0.442  1.00  0.00    -0.224 NA
HETATM    6  C   LIG     1       0.247   2.765   0.127  1.00  0.00     0.210 A 
HETATM    7  N   LIG     1      -1.043   2.484  -0.128  1.00  0.00    -0.343 N 
HETATM    8  C   LIG     1      -1.163   1.117   0.032  1.00  0.00     0.149 A 
HETATM    9  C   LIG     1      -2.339   0.274  -0.120  1.00  0.00     0.281 A 
HETATM   10  O   LIG     1      -3.425   0.762  -0.435  1.00  0.00    -0.265 OA
HETATM   11  N   LIG     1      -2.095  -1.052   0.118  1.00  0.00    -0.269 N 
HETATM   12  C   LIG     1      -3.217  -2.000  -0.008  1.00  0.00     0.164 C 
HETATM   13  H   LIG     1      -1.774   3.133  -0.383  1.00  0.00     0.167 HD
ENDROOT
BRANCH   3  14
HETATM   14  C   LIG     1       1.549  -1.231   0.962  1.00  0.00     0.139 C 
BRANCH  14  15
HETATM   15  C   LIG     1       2.500  -1.364  -0.250  1.00  0.00    -0.004 C 
HETATM   16  C   LIG     1       3.910  -1.756   0.212  1.00  0.00     0.011 C 
HETATM   17  C   LIG     1       1.987  -2.352  -1.312  1.00  0.00     0.011 C 
ENDBRANCH  14  15
ENDBRANCH   3  14
TORSDOF 2
