REMARK  8 active torsions:
REMARK  status: ('A' for Active; 'I' for Inactive)
REMARK    1  A    between atoms: C_5  and  C_8 
REMARK    2  A    between atoms: C_10  and  C_13 
REMARK    3  A    between atoms: N_14  and  N_15 
REMARK    4  A    between atoms: N_19  and  C_20 
REMARK    5  A    between atoms: C_20  and  C_21 
REMARK    6  A    between atoms: C_21  and  C_22 
REMARK    7  A    between atoms: C_22  and  C_23 
REMARK    8  A    between atoms: C_23  and  N_24 
ROOT
HETATM    1  N   LIG     1      -1.558  -1.889  -1.539  1.00  0.00    -0.211 N 
HETATM    2  C   LIG     1      -1.213  -2.360  -2.877  1.00  0.00     0.259 A 
HETATM    3  C   LIG     1       0.164  -2.917  -2.597  1.00  0.00     0.247 A 
HETATM    4  O   LIG     1       0.884  -3.434  -3.451  1.00  0.00    -0.271 OA
HETATM    5  N   LIG     1       0.440  -2.739  -1.300  1.00  0.00    -0.267 N 
HETATM    6  C   LIG     1      -0.565  -2.112  -0.660  1.00  0.00     0.348 A 
HETATM    7  O   LIG     1      -0.570  -1.793   0.530  1.00  0.00    -0.245 OA
ENDROOT
BRANCH   1   8
HETATM    8  N   LIG     1      -2.667  -1.136  -1.257  1.00  0.00    -0.178 NA
HETATM    9  C   LIG     1      -3.683  -1.111  -2.048  1.00  0.00     0.176 C 
BRANCH   9  10
HETATM   10  C   LIG     1      -4.852  -0.317  -1.773  1.00  0.00     0.095 A 
HETATM   11  O   LIG     1      -4.886   0.438  -0.638  1.00  0.00    -0.308 OA
HETATM   12  C   LIG     1      -6.088   1.083  -0.618  1.00  0.00     0.086 A 
HETATM   13  C   LIG     1      -6.814   0.745  -1.729  1.00  0.00     0.041 A 
HETATM   14  C   LIG     1      -6.012  -0.162  -2.477  1.00  0.00     0.041 A 
BRANCH  12  15
HETATM   15  C   LIG     1      -6.360   1.963   0.517  1.00  0.00    -0.002 A 
HETATM   16  C   LIG     1      -7.582   2.669   0.599  1.00  0.00     0.016 A 
HETATM   17  C   LIG     1      -7.851   3.519   1.689  1.00  0.00     0.024 A 
HETATM   18  C   LIG     1      -6.899   3.673   2.714  1.00  0.00     0.034 A 
HETATM   19 CL   LIG     1      -7.228   4.714   4.051  1.00  0.00    -0.084 Cl
HETATM   20  C   LIG     1      -5.679   2.976   2.645  1.00  0.00     0.024 A 
HETATM   21  C   LIG     1      -5.412   2.127   1.554  1.00  0.00     0.016 A 
ENDBRANCH  12  15
ENDBRANCH   9  10
ENDBRANCH   1   8
BRANCH   5  22
HETATM   22  C   LIG     1       1.699  -3.141  -0.664  1.00  0.00     0.137 C 
BRANCH  22  23
HETATM   23  C   LIG     1       2.742  -2.011  -0.714  1.00  0.00     0.022 C 
BRANCH  23  24
HETATM   24  C   LIG     1       4.067  -2.406  -0.047  1.00  0.00     0.029 C 
BRANCH  24  25
HETATM   25  C   LIG     1       5.106  -1.272  -0.095  1.00  0.00     0.235 C 
BRANCH  25  26
HETATM   26  N   LIG     1       6.425  -1.682   0.459  1.00  0.00    -0.068 N 
HETATM   27  C   LIG     1       7.555  -0.855  -0.036  1.00  0.00     0.262 C 
HETATM   28  C   LIG     1       7.602   0.524   0.651  1.00  0.00     0.262 C 
HETATM   29  N   LIG     1       7.654   0.383   2.127  1.00  0.00    -0.072 N 
HETATM   30  C   LIG     1       6.529  -0.436   2.643  1.00  0.00     0.262 C 
HETATM   31  C   LIG     1       7.765   1.688   2.817  1.00  0.00     0.269 C 
HETATM   32  H   LIG     1       8.502  -0.122   2.340  1.00  0.00     0.279 HD
HETATM   33  C   LIG     1       6.467  -1.809   1.941  1.00  0.00     0.262 C 
HETATM   34  H   LIG     1       6.583  -2.609   0.087  1.00  0.00     0.280 HD
ENDBRANCH  25  26
ENDBRANCH  24  25
ENDBRANCH  23  24
ENDBRANCH  22  23
ENDBRANCH   5  22
TORSDOF 8
