REMARK  11 active torsions:
REMARK  status: ('A' for Active; 'I' for Inactive)
REMARK    1  A    between atoms: S_1  and  N_4 
REMARK    2  A    between atoms: N_4  and  C_5 
REMARK    3  A    between atoms: C_8  and  O_9 
REMARK    4  A    between atoms: O_9  and  C_10 
REMARK    5  A    between atoms: C_10  and  C_11 
REMARK    6  A    between atoms: C_11  and  N_12 
REMARK    7  A    between atoms: N_12  and  C_14 
REMARK    8  A    between atoms: C_14  and  C_15 
REMARK    9  A    between atoms: C_15  and  C_16 
REMARK   10  A    between atoms: C_19  and  N_20 
REMARK   11  A    between atoms: N_20  and  S_21 
ROOT
HETATM    1  N   LIG     1       0.877  -0.446   0.211  1.00  0.00    -0.073 N 
HETATM    2  C   LIG     1       0.871  -1.881  -0.167  1.00  0.00     0.269 C 
HETATM    3  H   LIG     1       0.536   0.072  -0.586  1.00  0.00     0.279 HD
ENDROOT
BRANCH   1   4
HETATM    4  C   LIG     1      -0.054  -0.140   1.333  1.00  0.00     0.261 C 
BRANCH   4   5
HETATM    5  C   LIG     1      -1.537  -0.340   0.975  1.00  0.00     0.203 C 
BRANCH   5   6
HETATM    6  O   LIG     1      -1.892  -1.704   1.159  1.00  0.00    -0.349 OA
BRANCH   6   7
HETATM    7  C   LIG     1      -3.184  -2.090   0.874  1.00  0.00     0.069 A 
HETATM    8  C   LIG     1      -4.203  -1.208   0.435  1.00  0.00     0.039 A 
HETATM    9  C   LIG     1      -5.499  -1.690   0.168  1.00  0.00     0.033 A 
HETATM   10  C   LIG     1      -5.803  -3.059   0.335  1.00  0.00     0.042 A 
HETATM   11  C   LIG     1      -4.791  -3.936   0.772  1.00  0.00     0.033 A 
HETATM   12  C   LIG     1      -3.495  -3.454   1.038  1.00  0.00     0.039 A 
BRANCH  10  13
HETATM   13  N   LIG     1      -7.077  -3.580   0.081  1.00  0.00    -0.285 N 
HETATM   14  H   LIG     1      -7.179  -4.567   0.263  1.00  0.00     0.178 HD
BRANCH  13  15
HETATM   15  S   LIG     1      -8.516  -2.780  -0.469  1.00  0.00     0.227 S 
HETATM   16  O   LIG     1      -8.668  -1.568   0.351  1.00  0.00    -0.206 OA
HETATM   17  O   LIG     1      -9.560  -3.814  -0.485  1.00  0.00    -0.206 OA
HETATM   18  C   LIG     1      -8.101  -2.316  -2.199  1.00  0.00     0.186 C 
ENDBRANCH  13  15
ENDBRANCH  10  13
ENDBRANCH   6   7
ENDBRANCH   5   6
ENDBRANCH   4   5
ENDBRANCH   1   4
BRANCH   1  19
HETATM   19  C   LIG     1       2.249   0.062   0.475  1.00  0.00     0.239 C 
BRANCH  19  20
HETATM   20  C   LIG     1       3.045   0.317  -0.818  1.00  0.00     0.066 C 
BRANCH  20  21
HETATM   21  C   LIG     1       4.424   0.880  -0.531  1.00  0.00    -0.057 A 
HETATM   22  C   LIG     1       5.511   0.013  -0.302  1.00  0.00     0.009 A 
HETATM   23  C   LIG     1       6.790   0.538  -0.031  1.00  0.00     0.030 A 
HETATM   24  C   LIG     1       6.996   1.932   0.015  1.00  0.00     0.042 A 
HETATM   25  C   LIG     1       5.904   2.799  -0.214  1.00  0.00     0.030 A 
HETATM   26  C   LIG     1       4.625   2.275  -0.486  1.00  0.00     0.009 A 
BRANCH  24  27
HETATM   27  N   LIG     1       8.284   2.408   0.288  1.00  0.00    -0.285 N 
HETATM   28  H   LIG     1       8.976   1.694   0.460  1.00  0.00     0.178 HD
BRANCH  27  29
HETATM   29  S   LIG     1       8.866   4.040   0.399  1.00  0.00     0.227 S 
HETATM   30  O   LIG     1       7.917   4.772   1.251  1.00  0.00    -0.206 OA
HETATM   31  O   LIG     1      10.283   3.928   0.773  1.00  0.00    -0.206 OA
HETATM   32  C   LIG     1       8.747   4.645  -1.333  1.00  0.00     0.186 C 
ENDBRANCH  27  29
ENDBRANCH  24  27
ENDBRANCH  20  21
ENDBRANCH  19  20
ENDBRANCH   1  19
TORSDOF 11
