REMARK  13 active torsions:
REMARK  status: ('A' for Active; 'I' for Inactive)
REMARK    1  A    between atoms: O_1  and  C_3 
REMARK    2  A    between atoms: C_6  and  C_11 
REMARK    3  A    between atoms: C_8  and  O_9 
REMARK    4  A    between atoms: C_11  and  C_12 
REMARK    5  A    between atoms: C_12  and  N_13 
REMARK    6  A    between atoms: N_13  and  C_14 
REMARK    7  A    between atoms: C_14  and  C_15 
REMARK    8  A    between atoms: C_15  and  C_16 
REMARK    9  A    between atoms: C_16  and  C_17 
REMARK   10  A    between atoms: C_17  and  C_20 
REMARK   11  A    between atoms: C_17  and  C_30 
REMARK   12  A    between atoms: C_23  and  O_24 
REMARK   13  A    between atoms: C_26  and  O_27 
ROOT
HETATM    1  C   LIG     1      -2.591  -0.711  -1.998  1.00  0.00     0.079 C 
HETATM    2  C   LIG     1      -3.764   0.120  -2.346  1.00  0.00     0.074 C 
HETATM    3  N   LIG     1      -4.680   0.772  -2.620  1.00  0.00    -0.196 NA
ENDROOT
BRANCH   1   4
HETATM    4  C   LIG     1      -1.439   0.276  -1.658  1.00  0.00     0.032 C 
BRANCH   4   5
HETATM    5  C   LIG     1      -0.079  -0.353  -1.296  1.00  0.00     0.029 C 
BRANCH   5   6
HETATM    6  C   LIG     1       0.984   0.707  -0.976  1.00  0.00     0.232 C 
BRANCH   6   7
HETATM    7  N   LIG     1       2.273   0.079  -0.625  1.00  0.00    -0.075 N 
HETATM    8  H   LIG     1       2.577  -0.487  -1.405  1.00  0.00     0.277 HD
HETATM    9  H   LIG     1       2.131  -0.521   0.175  1.00  0.00     0.277 HD
BRANCH   7  10
HETATM   10  C   LIG     1       3.342   1.045  -0.303  1.00  0.00     0.237 C 
BRANCH  10  11
HETATM   11  C   LIG     1       4.651   0.327   0.051  1.00  0.00     0.066 C 
BRANCH  11  12
HETATM   12  C   LIG     1       5.764   1.302   0.386  1.00  0.00    -0.054 A 
HETATM   13  C   LIG     1       6.627   1.764  -0.625  1.00  0.00     0.010 A 
HETATM   14  C   LIG     1       7.655   2.672  -0.315  1.00  0.00     0.040 A 
HETATM   15  C   LIG     1       7.834   3.132   1.014  1.00  0.00     0.101 A 
HETATM   16  C   LIG     1       6.968   2.670   2.033  1.00  0.00     0.102 A 
HETATM   17  C   LIG     1       5.935   1.755   1.709  1.00  0.00     0.046 A 
BRANCH  15  18
HETATM   18  O   LIG     1       8.821   4.022   1.387  1.00  0.00    -0.353 OA
HETATM   19  C   LIG     1       9.708   4.503   0.388  1.00  0.00     0.210 C 
ENDBRANCH  15  18
BRANCH  16  20
HETATM   20  O   LIG     1       7.189   3.152   3.307  1.00  0.00    -0.353 OA
HETATM   21  C   LIG     1       6.340   2.707   4.354  1.00  0.00     0.210 C 
ENDBRANCH  16  20
ENDBRANCH  11  12
ENDBRANCH  10  11
ENDBRANCH   7  10
ENDBRANCH   6   7
ENDBRANCH   5   6
ENDBRANCH   4   5
ENDBRANCH   1   4
BRANCH   1  22
HETATM   22  C   LIG     1      -2.915  -1.538  -0.734  1.00  0.00    -0.032 A 
HETATM   23  C   LIG     1      -3.805  -1.033   0.240  1.00  0.00     0.048 A 
HETATM   24  C   LIG     1      -4.122  -1.747   1.413  1.00  0.00     0.102 A 
HETATM   25  C   LIG     1      -3.500  -3.004   1.660  1.00  0.00     0.101 A 
HETATM   26  C   LIG     1      -2.595  -3.507   0.691  1.00  0.00     0.040 A 
HETATM   27  C   LIG     1      -2.306  -2.787  -0.481  1.00  0.00     0.012 A 
BRANCH  24  28
HETATM   28  O   LIG     1      -5.019  -1.113   2.251  1.00  0.00    -0.353 OA
HETATM   29  C   LIG     1      -5.824  -1.886   3.128  1.00  0.00     0.210 C 
ENDBRANCH  24  28
BRANCH  25  30
HETATM   30  O   LIG     1      -3.764  -3.677   2.836  1.00  0.00    -0.353 OA
HETATM   31  C   LIG     1      -3.151  -4.938   3.063  1.00  0.00     0.210 C 
ENDBRANCH  25  30
ENDBRANCH   1  22
BRANCH   1  32
HETATM   32  C   LIG     1      -2.273  -1.599  -3.254  1.00  0.00     0.004 C 
HETATM   33  C   LIG     1      -3.424  -2.565  -3.611  1.00  0.00     0.011 C 
HETATM   34  C   LIG     1      -1.909  -0.783  -4.512  1.00  0.00     0.011 C 
ENDBRANCH   1  32
TORSDOF 13
