REMARK  4 active torsions:
REMARK  status: ('A' for Active; 'I' for Inactive)
REMARK    1  A    between atoms: C_6  and  C_7 
REMARK    2  A    between atoms: C_6  and  C_12 
REMARK    3  A    between atoms: C_12  and  C_14 
REMARK    4  A    between atoms: C_14  and  C_15 
ROOT
HETATM    1  O   LIG     1       2.161  -3.640   0.848  1.00  0.00    -0.247 OA
HETATM    2  C   LIG     1       1.717  -2.530   0.568  1.00  0.00     0.329 A 
HETATM    3  N   LIG     1       2.496  -1.584   0.014  1.00  0.00    -0.278 N 
HETATM    4  C   LIG     1       2.113  -0.345  -0.339  1.00  0.00     0.244 A 
HETATM    5  O   LIG     1       2.933   0.426  -0.836  1.00  0.00    -0.272 OA
HETATM    6  C   LIG     1       0.636   0.133  -0.142  1.00  0.00     0.125 A 
HETATM    7  C   LIG     1      -0.157  -1.029   0.548  1.00  0.00     0.244 A 
HETATM    8  O   LIG     1      -1.332  -0.869   0.873  1.00  0.00    -0.272 OA
HETATM    9  N   LIG     1       0.434  -2.208   0.809  1.00  0.00    -0.278 N 
HETATM   10  H   LIG     1       3.461  -1.828  -0.154  1.00  0.00     0.173 HD
HETATM   11  H   LIG     1      -0.140  -2.917   1.242  1.00  0.00     0.173 HD
ENDROOT
BRANCH   6  12
HETATM   12  C   LIG     1       0.105   0.410  -1.594  1.00  0.00     0.025 C 
HETATM   13  C   LIG     1      -1.411   0.344  -1.875  1.00  0.00     0.007 C 
ENDBRANCH   6  12
BRANCH   6  14
HETATM   14  C   LIG     1       0.660   1.438   0.759  1.00  0.00     0.009 C 
HETATM   15  C   LIG     1       1.237   1.188   2.178  1.00  0.00     0.011 C 
BRANCH  14  16
HETATM   16  C   LIG     1      -0.669   2.236   0.898  1.00  0.00     0.005 C 
BRANCH  16  17
HETATM   17  C   LIG     1      -0.822   3.406  -0.091  1.00  0.00    -0.004 C 
HETATM   18  C   LIG     1      -2.137   4.168   0.104  1.00  0.00     0.005 C 
ENDBRANCH  16  17
ENDBRANCH  14  16
ENDBRANCH   6  14
TORSDOF 4
