REMARK  4 active torsions:
REMARK  status: ('A' for Active; 'I' for Inactive)
REMARK    1  A    between atoms: C_7  and  C_8 
REMARK    2  A    between atoms: C_8  and  N_9 
REMARK    3  A    between atoms: C_8  and  C_14 
REMARK    4  A    between atoms: C_8  and  C_20 
ROOT
HETATM    1  C   LIG     1       0.004   0.305   0.268  1.00  0.00     0.121 C 
ENDROOT
BRANCH   1   2
HETATM    2  C   LIG     1       1.201   1.163  -0.257  1.00  0.00     0.002 A 
HETATM    3  C   LIG     1       2.260   0.600  -1.037  1.00  0.00     0.043 A 
HETATM    4 CL   LIG     1       2.327  -1.072  -1.480  1.00  0.00    -0.084 Cl
HETATM    5  C   LIG     1       3.312   1.409  -1.511  1.00  0.00     0.024 A 
HETATM    6  C   LIG     1       3.330   2.790  -1.258  1.00  0.00     0.002 A 
HETATM    7  C   LIG     1       2.274   3.373  -0.543  1.00  0.00     0.001 A 
HETATM    8  C   LIG     1       1.222   2.572  -0.063  1.00  0.00     0.012 A 
ENDBRANCH   1   2
BRANCH   1   9
HETATM    9  N   LIG     1      -0.815   1.032   1.269  1.00  0.00    -0.327 N 
HETATM   10  C   LIG     1      -2.207   1.098   1.377  1.00  0.00     0.113 A 
HETATM   11  C   LIG     1      -2.498   1.811   2.517  1.00  0.00     0.135 A 
HETATM   12  N   LIG     1      -1.319   2.144   3.171  1.00  0.00    -0.255 NA
HETATM   13  C   LIG     1      -0.376   1.627   2.396  1.00  0.00     0.210 A 
ENDBRANCH   1   9
BRANCH   1  14
HETATM   14  C   LIG     1      -0.844   0.004  -0.998  1.00  0.00    -0.020 A 
HETATM   15  C   LIG     1      -0.922  -1.283  -1.589  1.00  0.00     0.010 A 
HETATM   16  C   LIG     1      -1.674  -1.502  -2.759  1.00  0.00     0.001 A 
HETATM   17  C   LIG     1      -2.350  -0.434  -3.376  1.00  0.00     0.000 A 
HETATM   18  C   LIG     1      -2.260   0.856  -2.825  1.00  0.00     0.001 A 
HETATM   19  C   LIG     1      -1.507   1.071  -1.656  1.00  0.00     0.010 A 
ENDBRANCH   1  14
BRANCH   1  20
HETATM   20  C   LIG     1       0.435  -0.942   1.088  1.00  0.00    -0.020 A 
HETATM   21  C   LIG     1      -0.505  -1.958   1.395  1.00  0.00     0.010 A 
HETATM   22  C   LIG     1      -0.152  -3.064   2.191  1.00  0.00     0.001 A 
HETATM   23  C   LIG     1       1.146  -3.162   2.724  1.00  0.00     0.000 A 
HETATM   24  C   LIG     1       2.079  -2.141   2.473  1.00  0.00     0.001 A 
HETATM   25  C   LIG     1       1.723  -1.036   1.677  1.00  0.00     0.010 A 
ENDBRANCH   1  20
TORSDOF 4
