REMARK  4 active torsions:
REMARK  status: ('A' for Active; 'I' for Inactive)
REMARK    1  A    between atoms: O_1  and  C_2 
REMARK    2  A    between atoms: C_2  and  C_3 
REMARK    3  A    between atoms: C_2  and  C_7 
REMARK    4  A    between atoms: C_3  and  N_4 
ROOT
HETATM    1  C   LIG     1      -0.056  -0.962   1.042  1.00  0.00     0.181 C 
ENDROOT
BRANCH   1   2
HETATM    2  O   LIG     1      -0.647  -2.236   1.202  1.00  0.00    -0.389 OA
HETATM    3  H   LIG     1      -1.352  -2.164   1.828  1.00  0.00     0.210 HD
ENDBRANCH   1   2
BRANCH   1   4
HETATM    4  C   LIG     1       1.179  -1.085   0.114  1.00  0.00     0.214 C 
HETATM    5  C   LIG     1       2.252  -2.019   0.708  1.00  0.00     0.043 C 
BRANCH   4   6
HETATM    6  N   LIG     1       1.755   0.256  -0.145  1.00  0.00    -0.072 N 
HETATM    7  H   LIG     1       0.981   0.892  -0.282  1.00  0.00     0.277 HD
HETATM    8  H   LIG     1       2.274   0.555   0.667  1.00  0.00     0.277 HD
HETATM    9  C   LIG     1       2.614   0.352  -1.343  1.00  0.00     0.267 C 
ENDBRANCH   4   6
ENDBRANCH   1   4
BRANCH   1  10
HETATM   10  C   LIG     1      -1.071   0.049   0.522  1.00  0.00    -0.028 A 
HETATM   11  C   LIG     1      -1.257   1.276   1.196  1.00  0.00     0.010 A 
HETATM   12  C   LIG     1      -2.185   2.218   0.712  1.00  0.00     0.001 A 
HETATM   13  C   LIG     1      -2.932   1.940  -0.449  1.00  0.00     0.000 A 
HETATM   14  C   LIG     1      -2.752   0.718  -1.125  1.00  0.00     0.001 A 
HETATM   15  C   LIG     1      -1.824  -0.225  -0.641  1.00  0.00     0.010 A 
ENDBRANCH   1  10
TORSDOF 4
