REMARK  4 active torsions:
REMARK  status: ('A' for Active; 'I' for Inactive)
REMARK    1  A    between atoms: O_1  and  C_2 
REMARK    2  A    between atoms: C_7  and  C_8 
REMARK    3  A    between atoms: C_8  and  C_10 
REMARK    4  A    between atoms: C_10  and  O_12 
ROOT
HETATM    1  C   LIG     1       3.593   1.133  -0.114  1.00  0.00     0.069 A 
HETATM    2  C   LIG     1       2.502   1.810   0.487  1.00  0.00     0.049 A 
HETATM    3  C   LIG     1       1.229   1.205   0.545  1.00  0.00    -0.023 A 
HETATM    4  C   LIG     1       1.034  -0.087   0.001  1.00  0.00    -0.025 A 
HETATM    5  C   LIG     1      -0.238  -0.691   0.059  1.00  0.00     0.020 A 
HETATM    6  C   LIG     1      -1.326  -0.014   0.658  1.00  0.00    -0.043 A 
HETATM    7  C   LIG     1      -1.123   1.275   1.198  1.00  0.00     0.009 A 
HETATM    8  C   LIG     1       0.147   1.881   1.143  1.00  0.00     0.013 A 
HETATM    9  C   LIG     1       2.115  -0.762  -0.598  1.00  0.00     0.015 A 
HETATM   10  C   LIG     1       3.384  -0.153  -0.653  1.00  0.00     0.037 A 
ENDROOT
BRANCH   6  11
HETATM   11  C   LIG     1      -2.711  -0.657   0.731  1.00  0.00     0.112 C 
HETATM   12  C   LIG     1      -2.670  -2.062   1.364  1.00  0.00     0.026 C 
BRANCH  11  13
HETATM   13  C   LIG     1      -3.401  -0.669  -0.645  1.00  0.00     0.148 C 
HETATM   14  O   LIG     1      -2.860  -0.322  -1.694  1.00  0.00    -0.649 OA
BRANCH  13  15
HETATM   15  O   LIG     1      -4.693  -1.095  -0.551  1.00  0.00    -0.776 OA
HETATM   16  H   LIG     1      -5.128  -1.100  -1.389  1.00  0.00     0.167 HD
ENDBRANCH  13  15
ENDBRANCH  11  13
ENDBRANCH   6  11
BRANCH   1  17
HETATM   17  O   LIG     1       4.867   1.651  -0.212  1.00  0.00    -0.356 OA
HETATM   18  C   LIG     1       5.107   2.945   0.321  1.00  0.00     0.210 C 
ENDBRANCH   1  17
TORSDOF 4
