REMARK  5 active torsions:
REMARK  status: ('A' for Active; 'I' for Inactive)
REMARK    1  A    between atoms: C_2  and  C_5 
REMARK    2  A    between atoms: C_12  and  C_13 
REMARK    3  A    between atoms: C_17  and  C_19 
REMARK    4  A    between atoms: C_19  and  O_20 
REMARK    5  A    between atoms: C_19  and  C_21 
ROOT
HETATM    1  C   LIG     1      -1.209   2.021   0.874  1.00  0.00     0.141 A 
HETATM    2  N   LIG     1      -2.249   1.375   0.314  1.00  0.00    -0.243 NA
HETATM    3  C   LIG     1      -2.221   0.031   0.173  1.00  0.00     0.083 A 
HETATM    4  C   LIG     1      -1.093  -0.736   0.605  1.00  0.00     0.002 A 
HETATM    5  C   LIG     1      -1.106  -2.142   0.438  1.00  0.00     0.014 A 
HETATM    6  C   LIG     1      -2.207  -2.787  -0.146  1.00  0.00     0.002 A 
HETATM    7  C   LIG     1      -3.313  -2.038  -0.571  1.00  0.00     0.019 A 
HETATM    8  C   LIG     1      -3.329  -0.635  -0.417  1.00  0.00     0.077 A 
HETATM    9  C   LIG     1       0.015  -0.058   1.193  1.00  0.00    -0.013 A 
HETATM   10  C   LIG     1      -0.061   1.346   1.324  1.00  0.00     0.047 A 
ENDROOT
BRANCH   9  11
HETATM   11  C   LIG     1       1.281  -0.771   1.692  1.00  0.00     0.182 C 
BRANCH  11  12
HETATM   12  O   LIG     1       1.801  -0.189   2.873  1.00  0.00    -0.389 OA
HETATM   13  H   LIG     1       2.457  -0.765   3.236  1.00  0.00     0.210 HD
ENDBRANCH  11  12
BRANCH  11  14
HETATM   14  C   LIG     1       2.428  -0.826   0.648  1.00  0.00     0.219 C 
HETATM   15  N   LIG     1       2.832   0.538   0.227  1.00  0.00    -0.068 N 
HETATM   16  C   LIG     1       3.981   0.556  -0.705  1.00  0.00     0.233 C 
HETATM   17  H   LIG     1       3.071   1.068   1.054  1.00  0.00     0.277 HD
HETATM   18  H   LIG     1       2.042   0.980  -0.221  1.00  0.00     0.277 HD
HETATM   19  C   LIG     1       3.674  -0.271  -1.964  1.00  0.00     0.027 C 
HETATM   20  C   LIG     1       3.265  -1.702  -1.589  1.00  0.00     0.004 C 
HETATM   21  C   LIG     1       2.093  -1.679  -0.596  1.00  0.00     0.036 C 
ENDBRANCH  11  14
ENDBRANCH   9  11
BRANCH   1  22
HETATM   22  C   LIG     1      -1.348   3.534   0.993  1.00  0.00     0.434 C 
HETATM   23  F   LIG     1      -1.516   4.067  -0.218  1.00  0.00    -0.165 F 
HETATM   24  F   LIG     1      -2.407   3.833   1.746  1.00  0.00    -0.165 F 
HETATM   25  F   LIG     1      -0.268   4.085   1.548  1.00  0.00    -0.165 F 
ENDBRANCH   1  22
BRANCH   8  26
HETATM   26  C   LIG     1      -4.550   0.155  -0.890  1.00  0.00     0.419 C 
HETATM   27  F   LIG     1      -5.101   0.808   0.133  1.00  0.00    -0.166 F 
HETATM   28  F   LIG     1      -4.193   1.033  -1.828  1.00  0.00    -0.166 F 
HETATM   29  F   LIG     1      -5.483  -0.642  -1.413  1.00  0.00    -0.166 F 
ENDBRANCH   8  26
TORSDOF 5
