REMARK  2 active torsions:
REMARK  status: ('A' for Active; 'I' for Inactive)
REMARK    1  A    between atoms: O_1  and  C_2 
REMARK    2  A    between atoms: C_5  and  N_6 
REMARK       I    between atoms: N_6  and  C_7 
ROOT
HETATM    1  C   LIG     1       3.182   0.829   0.162  1.00  0.00     0.065 A 
HETATM    2  C   LIG     1       2.043   1.641  -0.002  1.00  0.00     0.039 A 
HETATM    3  C   LIG     1       0.762   1.058  -0.063  1.00  0.00     0.032 A 
HETATM    4  C   LIG     1       0.610  -0.346   0.049  1.00  0.00     0.034 A 
HETATM    5  C   LIG     1       1.759  -1.151   0.197  1.00  0.00     0.032 A 
HETATM    6  C   LIG     1       3.039  -0.568   0.259  1.00  0.00     0.039 A 
ENDROOT
BRANCH   4   7
HETATM    7  N   LIG     1      -0.645  -1.009  -0.023  1.00  0.00    -0.328 N 
HETATM    8  C   LIG     1      -1.872  -0.522   0.236  1.00  0.00     0.218 C 
HETATM    9  O   LIG     1      -2.111   0.623   0.618  1.00  0.00    -0.274 OA
HETATM   10  C   LIG     1      -3.022  -1.507   0.054  1.00  0.00     0.117 C 
HETATM   11  H   LIG     1      -0.602  -1.994  -0.242  1.00  0.00     0.169 HD
ENDBRANCH   4   7
BRANCH   1  12
HETATM   12  O   LIG     1       4.423   1.392   0.222  1.00  0.00    -0.361 OA
HETATM   13  H   LIG     1       4.409   2.334   0.147  1.00  0.00     0.217 HD
ENDBRANCH   1  12
TORSDOF 2
