REMARK  5 active torsions:
REMARK  status: ('A' for Active; 'I' for Inactive)
REMARK       I    between atoms: C_2  and  N_3 
REMARK    1  A    between atoms: C_2  and  C_12 
REMARK    2  A    between atoms: N_3  and  C_4 
REMARK    3  A    between atoms: C_12  and  N_13 
REMARK    4  A    between atoms: N_13  and  C_14 
REMARK    5  A    between atoms: N_13  and  C_16 
ROOT
HETATM    1  O   LIG     1       0.232   0.564   1.352  1.00  0.00    -0.271 OA
HETATM    2  C   LIG     1      -0.252   0.131   0.306  1.00  0.00     0.248 C 
HETATM    3  N   LIG     1       0.254  -0.909  -0.376  1.00  0.00    -0.325 N 
HETATM    4  H   LIG     1      -0.284  -1.268  -1.151  1.00  0.00     0.169 HD
ENDROOT
BRANCH   3   5
HETATM    5  C   LIG     1       1.395  -1.663   0.006  1.00  0.00     0.046 A 
HETATM    6  C   LIG     1       1.224  -3.027   0.348  1.00  0.00    -0.035 A 
HETATM    7  C   LIG     1       2.342  -3.803   0.718  1.00  0.00     0.009 A 
HETATM    8  C   LIG     1      -0.152  -3.672   0.338  1.00  0.00     0.050 C 
HETATM    9  C   LIG     1       3.627  -3.232   0.737  1.00  0.00     0.001 A 
HETATM   10  C   LIG     1       3.803  -1.885   0.375  1.00  0.00     0.009 A 
HETATM   11  C   LIG     1       2.698  -1.094  -0.003  1.00  0.00    -0.035 A 
HETATM   12  C   LIG     1       2.950   0.344  -0.429  1.00  0.00     0.050 C 
ENDBRANCH   3   5
BRANCH   2  13
HETATM   13  C   LIG     1      -1.513   0.776  -0.273  1.00  0.00     0.337 C 
BRANCH  13  14
HETATM   14  N   LIG     1      -1.583   2.233   0.020  1.00  0.00    -0.064 N 
HETATM   15  H   LIG     1      -1.277   2.317   0.979  1.00  0.00     0.280 HD
BRANCH  14  16
HETATM   16  C   LIG     1      -2.979   2.746  -0.018  1.00  0.00     0.231 C 
HETATM   17  C   LIG     1      -3.124   4.132   0.627  1.00  0.00     0.034 C 
ENDBRANCH  14  16
BRANCH  14  18
HETATM   18  C   LIG     1      -0.633   3.037  -0.800  1.00  0.00     0.231 C 
HETATM   19  C   LIG     1       0.306   3.867   0.085  1.00  0.00     0.034 C 
ENDBRANCH  14  18
ENDBRANCH  13  14
ENDBRANCH   2  13
TORSDOF 5
