REMARK  4 active torsions:
REMARK  status: ('A' for Active; 'I' for Inactive)
REMARK       I    between atoms: C_2  and  N_3 
REMARK    1  A    between atoms: C_2  and  C_12 
REMARK    2  A    between atoms: N_3  and  C_4 
REMARK    3  A    between atoms: N_13  and  C_18 
REMARK    4  A    between atoms: C_18  and  C_19 
ROOT
HETATM    1  O   LIG     1       1.678  -0.465  -1.992  1.00  0.00    -0.271 OA
HETATM    2  C   LIG     1       0.940  -0.235  -1.035  1.00  0.00     0.253 C 
HETATM    3  N   LIG     1       1.347   0.486   0.025  1.00  0.00    -0.324 N 
HETATM    4  H   LIG     1       0.661   0.728   0.723  1.00  0.00     0.169 HD
ENDROOT
BRANCH   2   5
HETATM    5  C   LIG     1      -0.513  -0.776  -1.074  1.00  0.00     0.279 C 
HETATM    6  C   LIG     1      -0.541  -2.304  -1.310  1.00  0.00     0.043 C 
HETATM    7  C   LIG     1      -0.171  -3.086  -0.040  1.00  0.00     0.004 C 
HETATM    8  C   LIG     1      -1.103  -2.684   1.111  1.00  0.00     0.028 C 
HETATM    9  C   LIG     1      -1.092  -1.163   1.336  1.00  0.00     0.236 C 
HETATM   10  N   LIG     1      -1.411  -0.432   0.076  1.00  0.00    -0.058 N 
HETATM   11  H   LIG     1      -2.304  -0.807  -0.211  1.00  0.00     0.281 HD
BRANCH  10  12
HETATM   12  C   LIG     1      -1.683   1.017   0.259  1.00  0.00     0.240 C 
BRANCH  12  13
HETATM   13  C   LIG     1      -3.114   1.267   0.694  1.00  0.00     0.011 A 
HETATM   14  C   LIG     1      -3.706   2.653   0.583  1.00  0.00     0.007 A 
HETATM   15  C   LIG     1      -4.197   1.550  -0.321  1.00  0.00     0.007 A 
ENDBRANCH  12  13
ENDBRANCH  10  12
ENDBRANCH   2   5
BRANCH   3  16
HETATM   16  C   LIG     1       2.623   1.087   0.165  1.00  0.00     0.046 A 
HETATM   17  C   LIG     1       2.720   2.501   0.132  1.00  0.00    -0.035 A 
HETATM   18  C   LIG     1       3.977   3.120   0.288  1.00  0.00     0.009 A 
HETATM   19  C   LIG     1       1.489   3.366  -0.079  1.00  0.00     0.050 C 
HETATM   20  C   LIG     1       5.132   2.342   0.486  1.00  0.00     0.001 A 
HETATM   21  C   LIG     1       5.035   0.941   0.542  1.00  0.00     0.009 A 
HETATM   22  C   LIG     1       3.785   0.303   0.394  1.00  0.00    -0.035 A 
HETATM   23  C   LIG     1       3.722  -1.212   0.505  1.00  0.00     0.050 C 
ENDBRANCH   3  16
TORSDOF 4
