REMARK  13 active torsions:
REMARK  status: ('A' for Active; 'I' for Inactive)
REMARK    1  A    between atoms: N_2  and  C_4 
REMARK    2  A    between atoms: C_7  and  C_8 
REMARK    3  A    between atoms: C_8  and  C_9 
REMARK    4  A    between atoms: C_9  and  C_10 
REMARK    5  A    between atoms: C_10  and  C_11 
REMARK    6  A    between atoms: C_11  and  N_12 
REMARK    7  A    between atoms: N_12  and  C_13 
REMARK    8  A    between atoms: N_12  and  C_20 
REMARK    9  A    between atoms: C_13  and  C_14 
REMARK   10  A    between atoms: C_14  and  C_15 
REMARK   11  A    between atoms: C_15  and  C_16 
REMARK   12  A    between atoms: C_16  and  C_17 
REMARK   13  A    between atoms: C_17  and  C_18 
ROOT
HETATM    1  C   LIG     1       1.133  -1.422  -0.352  1.00  0.00     0.028 C 
ENDROOT
BRANCH   1   2
HETATM    2  C   LIG     1       2.429  -0.630  -0.126  1.00  0.00     0.006 C 
BRANCH   2   3
HETATM    3  C   LIG     1       3.654  -1.540   0.045  1.00  0.00     0.038 C 
BRANCH   3   4
HETATM    4  C   LIG     1       4.929  -0.749   0.267  1.00  0.00    -0.058 A 
HETATM    5  C   LIG     1       5.713  -0.345  -0.833  1.00  0.00     0.009 A 
HETATM    6  C   LIG     1       6.895   0.393  -0.627  1.00  0.00     0.036 A 
HETATM    7  C   LIG     1       7.311   0.739   0.680  1.00  0.00     0.102 A 
HETATM    8  C   LIG     1       6.516   0.331   1.777  1.00  0.00     0.036 A 
HETATM    9  C   LIG     1       5.334  -0.407   1.572  1.00  0.00     0.009 A 
BRANCH   7  10
HETATM   10  N   LIG     1       8.549   1.513   0.895  1.00  0.00    -0.116 N 
HETATM   11  O   LIG     1       8.869   1.790   2.047  1.00  0.00    -0.532 OA
HETATM   12  O   LIG     1       9.205   1.845  -0.087  1.00  0.00    -0.532 OA
ENDBRANCH   7  10
ENDBRANCH   3   4
ENDBRANCH   2   3
ENDBRANCH   1   2
BRANCH   1  13
HETATM   13  C   LIG     1      -0.092  -0.505  -0.522  1.00  0.00     0.234 C 
BRANCH  13  14
HETATM   14  N   LIG     1      -1.358  -1.271  -0.673  1.00  0.00    -0.071 N 
HETATM   15  H   LIG     1      -1.341  -1.967   0.059  1.00  0.00     0.279 HD
BRANCH  14  16
HETATM   16  C   LIG     1      -2.558  -0.437  -0.397  1.00  0.00     0.234 C 
BRANCH  16  17
HETATM   17  C   LIG     1      -3.807  -1.285  -0.098  1.00  0.00     0.028 C 
BRANCH  17  18
HETATM   18  C   LIG     1      -5.029  -0.424   0.255  1.00  0.00     0.002 C 
BRANCH  18  19
HETATM   19  C   LIG     1      -6.277  -1.267   0.555  1.00  0.00     0.000 C 
BRANCH  19  20
HETATM   20  C   LIG     1      -7.499  -0.406   0.908  1.00  0.00    -0.000 C 
BRANCH  20  21
HETATM   21  C   LIG     1      -8.747  -1.248   1.208  1.00  0.00    -0.005 C 
HETATM   22  C   LIG     1      -9.966  -0.389   1.560  1.00  0.00     0.005 C 
ENDBRANCH  20  21
ENDBRANCH  19  20
ENDBRANCH  18  19
ENDBRANCH  17  18
ENDBRANCH  16  17
ENDBRANCH  14  16
BRANCH  14  23
HETATM   23  C   LIG     1      -1.444  -2.012  -1.961  1.00  0.00     0.230 C 
HETATM   24  C   LIG     1      -1.473  -3.527  -1.724  1.00  0.00     0.034 C 
ENDBRANCH  14  23
ENDBRANCH  13  14
ENDBRANCH   1  13
TORSDOF 13
