REMARK  8 active torsions:
REMARK  status: ('A' for Active; 'I' for Inactive)
REMARK    1  A    between atoms: O_1  and  C_2 
REMARK    2  A    between atoms: O_1  and  C_7 
REMARK    3  A    between atoms: C_2  and  C_3 
REMARK    4  A    between atoms: C_3  and  N_4 
REMARK    5  A    between atoms: C_10  and  C_13 
REMARK    6  A    between atoms: C_13  and  C_14 
REMARK    7  A    between atoms: C_20  and  C_21 
REMARK    8  A    between atoms: C_20  and  C_23 
ROOT
HETATM    1  C   LIG     1       1.961   0.510   0.084  1.00  0.00    -0.009 C 
HETATM    2  C   LIG     1       3.099  -0.216   0.261  1.00  0.00    -0.036 C 
ENDROOT
BRANCH   1   3
HETATM    3  C   LIG     1       0.637  -0.130   0.000  1.00  0.00    -0.024 A 
HETATM    4  C   LIG     1      -0.323   0.097   1.007  1.00  0.00     0.015 A 
HETATM    5  C   LIG     1      -1.600  -0.492   0.925  1.00  0.00     0.037 A 
HETATM    6  C   LIG     1      -1.941  -1.315  -0.177  1.00  0.00     0.068 A 
HETATM    7  C   LIG     1      -0.982  -1.526  -1.187  1.00  0.00     0.037 A 
HETATM    8  C   LIG     1       0.294  -0.937  -1.105  1.00  0.00     0.015 A 
BRANCH   6   9
HETATM    9  O   LIG     1      -3.164  -1.931  -0.338  1.00  0.00    -0.350 OA
BRANCH   9  10
HETATM   10  C   LIG     1      -4.141  -1.770   0.681  1.00  0.00     0.203 C 
BRANCH  10  11
HETATM   11  C   LIG     1      -5.406  -2.562   0.311  1.00  0.00     0.260 C 
BRANCH  11  12
HETATM   12  N   LIG     1      -5.330  -4.000   0.678  1.00  0.00    -0.077 N 
HETATM   13  C   LIG     1      -6.665  -4.641   0.677  1.00  0.00     0.269 C 
HETATM   14  C   LIG     1      -4.360  -4.769  -0.135  1.00  0.00     0.269 C 
HETATM   15  H   LIG     1      -5.004  -4.040   1.634  1.00  0.00     0.279 HD
ENDBRANCH  11  12
ENDBRANCH  10  11
ENDBRANCH   9  10
ENDBRANCH   6   9
ENDBRANCH   1   3
BRANCH   1  16
HETATM   16  C   LIG     1       1.978   1.984  -0.022  1.00  0.00    -0.025 A 
HETATM   17  C   LIG     1       2.498   2.783   1.021  1.00  0.00     0.012 A 
HETATM   18  C   LIG     1       2.502   4.187   0.913  1.00  0.00     0.001 A 
HETATM   19  C   LIG     1       1.977   4.805  -0.237  1.00  0.00     0.000 A 
HETATM   20  C   LIG     1       1.445   4.019  -1.276  1.00  0.00     0.001 A 
HETATM   21  C   LIG     1       1.444   2.615  -1.167  1.00  0.00     0.012 A 
ENDBRANCH   1  16
BRANCH   2  22
HETATM   22  C   LIG     1       3.118  -1.737   0.427  1.00  0.00     0.036 C 
HETATM   23  C   LIG     1       3.748  -2.453  -0.775  1.00  0.00     0.010 C 
ENDBRANCH   2  22
BRANCH   2  24
HETATM   24  C   LIG     1       4.438   0.408   0.261  1.00  0.00    -0.029 A 
HETATM   25  C   LIG     1       5.262   0.333   1.406  1.00  0.00     0.012 A 
HETATM   26  C   LIG     1       6.541   0.923   1.406  1.00  0.00     0.001 A 
HETATM   27  C   LIG     1       7.010   1.588   0.258  1.00  0.00     0.000 A 
HETATM   28  C   LIG     1       6.199   1.662  -0.891  1.00  0.00     0.001 A 
HETATM   29  C   LIG     1       4.921   1.072  -0.889  1.00  0.00     0.012 A 
ENDBRANCH   2  24
TORSDOF 8
