REMARK  4 active torsions:
REMARK  status: ('A' for Active; 'I' for Inactive)
REMARK    1  A    between atoms: O_1  and  C_2 
REMARK    2  A    between atoms: C_2  and  C_3 
REMARK    3  A    between atoms: C_2  and  C_7 
REMARK    4  A    between atoms: C_3  and  N_4 
ROOT
HETATM    1  C   LIG     1      -0.160  -1.288  -0.392  1.00  0.00     0.181 C 
ENDROOT
BRANCH   1   2
HETATM    2  O   LIG     1      -0.689  -2.524   0.045  1.00  0.00    -0.389 OA
HETATM    3  H   LIG     1      -1.471  -2.709  -0.453  1.00  0.00     0.210 HD
ENDBRANCH   1   2
BRANCH   1   4
HETATM    4  C   LIG     1       1.214  -1.053   0.288  1.00  0.00     0.214 C 
HETATM    5  C   LIG     1       1.111  -0.820   1.810  1.00  0.00     0.043 C 
BRANCH   4   6
HETATM    6  N   LIG     1       1.923   0.068  -0.373  1.00  0.00    -0.072 N 
HETATM    7  H   LIG     1       1.821  -0.052  -1.371  1.00  0.00     0.277 HD
HETATM    8  H   LIG     1       1.474   0.934  -0.110  1.00  0.00     0.277 HD
HETATM    9  C   LIG     1       3.369   0.161  -0.089  1.00  0.00     0.267 C 
ENDBRANCH   4   6
ENDBRANCH   1   4
BRANCH   1  10
HETATM   10  C   LIG     1      -1.141  -0.131  -0.220  1.00  0.00    -0.028 A 
HETATM   11  C   LIG     1      -1.199   0.890  -1.194  1.00  0.00     0.010 A 
HETATM   12  C   LIG     1      -2.098   1.964  -1.048  1.00  0.00     0.001 A 
HETATM   13  C   LIG     1      -2.948   2.024   0.072  1.00  0.00     0.000 A 
HETATM   14  C   LIG     1      -2.900   1.008   1.046  1.00  0.00     0.001 A 
HETATM   15  C   LIG     1      -2.001  -0.066   0.899  1.00  0.00     0.010 A 
ENDBRANCH   1  10
TORSDOF 4
