REMARK  0 active torsions:
REMARK  status: ('A' for Active; 'I' for Inactive)
ROOT
HETATM    1  O   LIG     1       0.111  -3.622   0.117  1.00  0.00    -0.246 OA
HETATM    2  C   LIG     1       0.125  -2.388   0.113  1.00  0.00     0.332 A 
HETATM    3  N   LIG     1      -1.052  -1.681   0.093  1.00  0.00    -0.286 N 
HETATM    4  C   LIG     1      -2.333  -2.393   0.078  1.00  0.00     0.163 C 
HETATM    5  C   LIG     1      -1.050  -0.263   0.088  1.00  0.00     0.167 A 
HETATM    6  N   LIG     1      -2.105   0.644   0.069  1.00  0.00    -0.223 NA
HETATM    7  C   LIG     1      -1.468   1.816   0.074  1.00  0.00     0.212 A 
HETATM    8  N   LIG     1      -0.122   1.743   0.093  1.00  0.00    -0.338 N 
HETATM    9  C   LIG     1       0.814   2.851   0.102  1.00  0.00     0.157 C 
HETATM   10  C   LIG     1       0.144   0.378   0.102  1.00  0.00     0.151 A 
HETATM   11  C   LIG     1       1.431  -0.321   0.123  1.00  0.00     0.282 A 
HETATM   12  O   LIG     1       2.493   0.303   0.135  1.00  0.00    -0.265 OA
HETATM   13  N   LIG     1       1.319  -1.687   0.127  1.00  0.00    -0.269 N 
HETATM   14  C   LIG     1       2.556  -2.489   0.147  1.00  0.00     0.164 C 
ENDROOT
TORSDOF 0
