REMARK  7 active torsions:
REMARK  status: ('A' for Active; 'I' for Inactive)
REMARK    1  A    between atoms: O_1  and  C_3 
REMARK    2  A    between atoms: C_6  and  C_9 
REMARK    3  A    between atoms: C_9  and  N_10 
REMARK    4  A    between atoms: N_10  and  C_11 
REMARK    5  A    between atoms: N_10  and  C_16 
REMARK    6  A    between atoms: C_11  and  C_12 
REMARK    7  A    between atoms: C_12  and  N_13 
ROOT
HETATM    1  N   LIG     1       0.208   0.275   0.051  1.00  0.00    -0.262 NA
ENDROOT
BRANCH   1   2
HETATM    2  C   LIG     1       0.681  -1.108   0.018  1.00  0.00     0.135 C 
BRANCH   2   3
HETATM    3  C   LIG     1       2.166  -1.289   0.285  1.00  0.00    -0.045 A 
HETATM    4  C   LIG     1       2.695  -1.006   1.560  1.00  0.00     0.011 A 
HETATM    5  C   LIG     1       4.072  -1.161   1.809  1.00  0.00     0.037 A 
HETATM    6  C   LIG     1       4.942  -1.603   0.780  1.00  0.00     0.068 A 
HETATM    7  C   LIG     1       4.401  -1.884  -0.492  1.00  0.00     0.037 A 
HETATM    8  C   LIG     1       3.024  -1.730  -0.741  1.00  0.00     0.011 A 
BRANCH   6   9
HETATM    9  O   LIG     1       6.300  -1.779   0.935  1.00  0.00    -0.356 OA
HETATM   10  C   LIG     1       6.869  -1.502   2.207  1.00  0.00     0.210 C 
ENDBRANCH   6   9
ENDBRANCH   2   3
ENDBRANCH   1   2
BRANCH   1  11
HETATM   11  C   LIG     1      -1.238   0.439   0.192  1.00  0.00     0.125 C 
BRANCH  11  12
HETATM   12  C   LIG     1      -1.655   1.890   0.512  1.00  0.00     0.248 C 
BRANCH  12  13
HETATM   13  N   LIG     1      -3.115   2.023   0.739  1.00  0.00    -0.078 N 
HETATM   14  C   LIG     1      -3.453   3.263   1.474  1.00  0.00     0.269 C 
HETATM   15  C   LIG     1      -3.913   1.893  -0.503  1.00  0.00     0.269 C 
HETATM   16  H   LIG     1      -3.385   1.259   1.343  1.00  0.00     0.279 HD
ENDBRANCH  12  13
ENDBRANCH  11  12
ENDBRANCH   1  11
BRANCH   1  17
HETATM   17  C   LIG     1       0.806   1.069  -0.944  1.00  0.00     0.105 A 
HETATM   18  C   LIG     1       1.951   1.833  -0.628  1.00  0.00     0.044 A 
HETATM   19  C   LIG     1       2.545   2.615  -1.637  1.00  0.00     0.005 A 
HETATM   20  C   LIG     1       1.972   2.612  -2.922  1.00  0.00     0.019 A 
HETATM   21  C   LIG     1       0.828   1.821  -3.142  1.00  0.00     0.118 A 
HETATM   22  N   LIG     1       0.253   1.067  -2.181  1.00  0.00    -0.249 NA
ENDBRANCH   1  17
TORSDOF 7
