REMARK  15 active torsions:
REMARK  status: ('A' for Active; 'I' for Inactive)
REMARK       I    between atoms: C_2  and  N_3 
REMARK    1  A    between atoms: C_2  and  C_18 
REMARK    2  A    between atoms: N_3  and  C_4 
REMARK    3  A    between atoms: C_4  and  C_5 
REMARK    4  A    between atoms: C_8  and  C_9 
REMARK    5  A    between atoms: C_9  and  C_10 
REMARK    6  A    between atoms: C_10  and  O_11 
REMARK    7  A    between atoms: C_10  and  C_12 
REMARK    8  A    between atoms: C_12  and  O_13 
REMARK    9  A    between atoms: C_14  and  O_15 
REMARK   10  A    between atoms: C_18  and  C_19 
REMARK   11  A    between atoms: C_19  and  C_20 
REMARK   12  A    between atoms: C_20  and  C_21 
REMARK   13  A    between atoms: C_21  and  C_22 
REMARK   14  A    between atoms: C_22  and  C_23 
REMARK   15  A    between atoms: C_23  and  C_24 
ROOT
HETATM    1  C   LIG     1       3.770   1.670  -0.145  1.00  0.00    -0.038 A 
HETATM    2  C   LIG     1       3.498   0.551  -0.959  1.00  0.00     0.009 A 
HETATM    3  C   LIG     1       4.532  -0.336  -1.307  1.00  0.00     0.011 A 
HETATM    4  C   LIG     1       5.847  -0.113  -0.852  1.00  0.00    -0.022 A 
HETATM    5  C   LIG     1       6.139   1.008  -0.040  1.00  0.00     0.075 A 
HETATM    6  C   LIG     1       5.088   1.897   0.304  1.00  0.00     0.046 A 
ENDROOT
BRANCH   1   7
HETATM    7  C   LIG     1       2.668   2.646   0.235  1.00  0.00     0.161 C 
BRANCH   7   8
HETATM    8  N   LIG     1       1.393   1.995   0.506  1.00  0.00    -0.357 N 
HETATM    9  C   LIG     1       0.223   2.638   0.630  1.00  0.00     0.217 C 
HETATM   10  O   LIG     1       0.116   3.860   0.533  1.00  0.00    -0.274 OA
HETATM   11  H   LIG     1       1.403   0.991   0.607  1.00  0.00     0.162 HD
BRANCH   9  12
HETATM   12  C   LIG     1      -1.003   1.763   0.913  1.00  0.00     0.103 C 
BRANCH  12  13
HETATM   13  C   LIG     1      -2.316   2.367   0.382  1.00  0.00     0.009 C 
BRANCH  13  14
HETATM   14  C   LIG     1      -3.524   1.450   0.625  1.00  0.00     0.000 C 
BRANCH  14  15
HETATM   15  C   LIG     1      -4.836   2.051   0.100  1.00  0.00     0.000 C 
BRANCH  15  16
HETATM   16  C   LIG     1      -6.043   1.134   0.342  1.00  0.00     0.000 C 
BRANCH  16  17
HETATM   17  C   LIG     1      -7.355   1.736  -0.182  1.00  0.00    -0.000 C 
BRANCH  17  18
HETATM   18  C   LIG     1      -8.563   0.819   0.061  1.00  0.00    -0.005 C 
HETATM   19  C   LIG     1      -9.873   1.420  -0.461  1.00  0.00     0.005 C 
ENDBRANCH  17  18
ENDBRANCH  16  17
ENDBRANCH  15  16
ENDBRANCH  14  15
ENDBRANCH  13  14
ENDBRANCH  12  13
ENDBRANCH   9  12
ENDBRANCH   7   8
ENDBRANCH   1   7
BRANCH   5  20
HETATM   20  O   LIG     1       7.445   1.174   0.376  1.00  0.00    -0.355 OA
HETATM   21  C   LIG     1       7.754   2.284   1.206  1.00  0.00     0.210 C 
ENDBRANCH   5  20
BRANCH   4  22
HETATM   22  C   LIG     1       6.944  -1.093  -1.245  1.00  0.00     0.075 C 
BRANCH  22  23
HETATM   23  C   LIG     1       7.286  -2.091  -0.122  1.00  0.00     0.146 C 
BRANCH  23  24
HETATM   24  O   LIG     1       6.253  -3.054  -0.042  1.00  0.00    -0.393 OA
HETATM   25  H   LIG     1       6.495  -3.681   0.623  1.00  0.00     0.210 HD
ENDBRANCH  23  24
BRANCH  23  26
HETATM   26  C   LIG     1       8.605  -2.832  -0.394  1.00  0.00     0.196 C 
BRANCH  26  27
HETATM   27  O   LIG     1       9.002  -3.552   0.755  1.00  0.00    -0.398 OA
HETATM   28  H   LIG     1       9.823  -3.984   0.573  1.00  0.00     0.209 HD
ENDBRANCH  26  27
ENDBRANCH  23  26
ENDBRANCH  22  23
ENDBRANCH   4  22
TORSDOF 15
