REMARK  12 active torsions:
REMARK  status: ('A' for Active; 'I' for Inactive)
REMARK    1  A    between atoms: N_2  and  C_4 
REMARK    2  A    between atoms: C_7  and  C_10 
REMARK       I    between atoms: C_10  and  N_12 
REMARK    3  A    between atoms: N_12  and  C_13 
REMARK    4  A    between atoms: N_12  and  C_21 
REMARK    5  A    between atoms: C_13  and  C_14 
REMARK    6  A    between atoms: C_14  and  C_15 
REMARK    7  A    between atoms: C_15  and  N_16 
REMARK    8  A    between atoms: N_16  and  C_17 
REMARK    9  A    between atoms: N_16  and  C_19 
REMARK   10  A    between atoms: C_21  and  C_22 
REMARK       I    between atoms: C_22  and  N_24 
REMARK   11  A    between atoms: N_24  and  C_25 
REMARK   12  A    between atoms: N_24  and  C_31 
ROOT
HETATM    1  C   LIG     1       1.385   0.623  -1.452  1.00  0.00     0.254 C 
HETATM    2  O   LIG     1       2.482   0.081  -1.594  1.00  0.00    -0.267 OA
HETATM    3  N   LIG     1       0.467   0.206  -0.538  1.00  0.00    -0.339 N 
ENDROOT
BRANCH   3   4
HETATM    4  C   LIG     1      -0.771   0.932  -0.207  1.00  0.00     0.128 C 
BRANCH   4   5
HETATM    5  C   LIG     1      -0.497   2.160   0.679  1.00  0.00     0.048 C 
BRANCH   5   6
HETATM    6  C   LIG     1      -1.786   2.920   1.040  1.00  0.00     0.236 C 
BRANCH   6   7
HETATM    7  N   LIG     1      -1.517   4.157   1.820  1.00  0.00    -0.072 N 
HETATM    8  H   LIG     1      -0.779   4.635   1.324  1.00  0.00     0.279 HD
BRANCH   7   9
HETATM    9  C   LIG     1      -2.672   5.093   1.807  1.00  0.00     0.230 C 
HETATM   10  C   LIG     1      -2.268   6.524   2.194  1.00  0.00     0.034 C 
ENDBRANCH   7   9
BRANCH   7  11
HETATM   11  C   LIG     1      -0.999   3.886   3.190  1.00  0.00     0.230 C 
HETATM   12  C   LIG     1       0.448   4.372   3.337  1.00  0.00     0.034 C 
ENDBRANCH   7  11
ENDBRANCH   6   7
ENDBRANCH   5   6
ENDBRANCH   4   5
ENDBRANCH   3   4
BRANCH   3  13
HETATM   13  C   LIG     1       0.716  -1.020   0.242  1.00  0.00     0.229 C 
BRANCH  13  14
HETATM   14  C   LIG     1       0.368  -2.304  -0.540  1.00  0.00     0.238 C 
HETATM   15  O   LIG     1      -0.542  -2.206  -1.367  1.00  0.00    -0.272 OA
HETATM   16  N   LIG     1       1.006  -3.490  -0.301  1.00  0.00    -0.341 N 
BRANCH  16  17
HETATM   17  C   LIG     1       0.600  -4.709  -1.055  1.00  0.00     0.087 C 
HETATM   18  C   LIG     1       1.744  -5.340  -1.883  1.00  0.00     0.025 C 
HETATM   19  C   LIG     1       1.233  -6.540  -2.697  1.00  0.00     0.002 C 
HETATM   20  C   LIG     1       0.542  -7.575  -1.793  1.00  0.00     0.000 C 
HETATM   21  C   LIG     1      -0.610  -6.942  -0.993  1.00  0.00     0.002 C 
HETATM   22  C   LIG     1      -0.124  -5.742  -0.163  1.00  0.00     0.025 C 
ENDBRANCH  16  17
BRANCH  16  23
HETATM   23  C   LIG     1       2.107  -3.715   0.675  1.00  0.00     0.087 C 
HETATM   24  C   LIG     1       3.473  -3.136   0.231  1.00  0.00     0.025 C 
HETATM   25  C   LIG     1       4.588  -3.589   1.190  1.00  0.00     0.002 C 
HETATM   26  C   LIG     1       4.251  -3.242   2.651  1.00  0.00     0.000 C 
HETATM   27  C   LIG     1       2.901  -3.844   3.078  1.00  0.00     0.002 C 
HETATM   28  C   LIG     1       1.767  -3.381   2.147  1.00  0.00     0.025 C 
ENDBRANCH  16  23
ENDBRANCH  13  14
ENDBRANCH   3  13
BRANCH   1  29
HETATM   29  C   LIG     1       1.052   1.794  -2.332  1.00  0.00     0.032 A 
HETATM   30  C   LIG     1       1.837   2.963  -2.267  1.00  0.00     0.019 A 
HETATM   31  C   LIG     1       1.552   4.059  -3.103  1.00  0.00     0.037 A 
HETATM   32  C   LIG     1       0.487   3.999  -4.032  1.00  0.00     0.102 A 
HETATM   33  C   LIG     1      -0.281   2.814  -4.110  1.00  0.00     0.037 A 
HETATM   34  C   LIG     1       0.004   1.718  -3.274  1.00  0.00     0.019 A 
BRANCH  32  35
HETATM   35  N   LIG     1       0.187   5.150  -4.907  1.00  0.00    -0.116 N 
HETATM   36  O   LIG     1       0.878   6.157  -4.800  1.00  0.00    -0.532 OA
HETATM   37  O   LIG     1      -0.743   5.048  -5.701  1.00  0.00    -0.532 OA
ENDBRANCH  32  35
ENDBRANCH   1  29
TORSDOF 12
