REMARK  6 active torsions:
REMARK  status: ('A' for Active; 'I' for Inactive)
REMARK    1  A    between atoms: C_2  and  O_3 
REMARK    2  A    between atoms: C_2  and  C_18 
REMARK    3  A    between atoms: O_3  and  C_4 
REMARK    4  A    between atoms: C_12  and  C_13 
REMARK    5  A    between atoms: C_13  and  O_15 
REMARK    6  A    between atoms: O_15  and  C_16 
ROOT
HETATM    1  C   LIG     1       0.704  -1.112   0.399  1.00  0.00     0.149 C 
HETATM    2  C   LIG     1       0.759  -2.133  -0.768  1.00  0.00     0.066 C 
HETATM    3  C   LIG     1       2.084  -2.933  -0.740  1.00  0.00     0.191 C 
HETATM    4  N   LIG     1       3.187  -1.962  -0.870  1.00  0.00    -0.065 N 
HETATM    5  C   LIG     1       4.469  -2.533  -1.341  1.00  0.00     0.270 C 
HETATM    6  C   LIG     1       3.238  -1.339   0.472  1.00  0.00     0.204 C 
HETATM    7  C   LIG     1       3.090  -2.530   1.441  1.00  0.00     0.036 C 
HETATM    8  C   LIG     1       2.324  -3.594   0.631  1.00  0.00     0.035 C 
HETATM    9  C   LIG     1       2.047  -0.341   0.586  1.00  0.00     0.146 C 
HETATM   10  H   LIG     1       2.918  -1.259  -1.545  1.00  0.00     0.280 HD
ENDROOT
BRANCH   1  11
HETATM   11  O   LIG     1      -0.401  -0.219   0.288  1.00  0.00    -0.311 OA
BRANCH  11  12
HETATM   12  C   LIG     1      -1.635  -0.567   0.713  1.00  0.00     0.293 C 
HETATM   13  O   LIG     1      -1.903  -1.660   1.214  1.00  0.00    -0.259 OA
BRANCH  12  14
HETATM   14  C   LIG     1      -2.641   0.514   0.508  1.00  0.00     0.039 A 
HETATM   15  C   LIG     1      -3.979   0.303   0.916  1.00  0.00     0.017 A 
HETATM   16  C   LIG     1      -4.951   1.306   0.735  1.00  0.00     0.001 A 
HETATM   17  C   LIG     1      -4.597   2.532   0.143  1.00  0.00     0.000 A 
HETATM   18  C   LIG     1      -3.270   2.755  -0.268  1.00  0.00     0.001 A 
HETATM   19  C   LIG     1      -2.296   1.753  -0.087  1.00  0.00     0.017 A 
ENDBRANCH  12  14
ENDBRANCH  11  12
ENDBRANCH   1  11
BRANCH   9  20
HETATM   20  C   LIG     1       2.253   0.833  -0.392  1.00  0.00     0.267 C 
HETATM   21  O   LIG     1       1.663   0.905  -1.471  1.00  0.00    -0.265 OA
BRANCH  20  22
HETATM   22  O   LIG     1       3.166   1.709   0.056  1.00  0.00    -0.321 OA
BRANCH  22  23
HETATM   23  C   LIG     1       3.492   2.845  -0.728  1.00  0.00     0.174 C 
HETATM   24  C   LIG     1       4.559   3.669  -0.003  1.00  0.00     0.034 C 
ENDBRANCH  22  23
ENDBRANCH  20  22
ENDBRANCH   9  20
TORSDOF 6
