REMARK  14 active torsions:
REMARK  status: ('A' for Active; 'I' for Inactive)
REMARK    1  A    between atoms: C_5  and  C_6 
REMARK    2  A    between atoms: C_6  and  C_7 
REMARK    3  A    between atoms: C_8  and  C_10 
REMARK    4  A    between atoms: C_10  and  C_11 
REMARK    5  A    between atoms: C_11  and  C_12 
REMARK    6  A    between atoms: C_12  and  C_13 
REMARK    7  A    between atoms: C_13  and  C_15 
REMARK    8  A    between atoms: C_15  and  C_16 
REMARK    9  A    between atoms: C_16  and  C_17 
REMARK   10  A    between atoms: C_17  and  C_18 
REMARK   11  A    between atoms: C_18  and  C_20 
REMARK   12  A    between atoms: C_20  and  C_21 
REMARK   13  A    between atoms: C_21  and  C_22 
REMARK   14  A    between atoms: C_22  and  C_23 
ROOT
HETATM    1  C   LIG     1      -4.119  -4.308  -0.658  1.00  0.00    -0.020 C 
HETATM    2  C   LIG     1      -2.940  -4.391  -0.007  1.00  0.00    -0.087 C 
HETATM    3  C   LIG     1      -2.766  -4.916   1.411  1.00  0.00     0.043 C 
ENDROOT
BRANCH   2   4
HETATM    4  C   LIG     1      -1.651  -3.934  -0.675  1.00  0.00     0.033 C 
BRANCH   4   5
HETATM    5  C   LIG     1      -1.063  -2.665  -0.038  1.00  0.00     0.005 C 
BRANCH   5   6
HETATM    6  C   LIG     1       0.196  -2.172  -0.771  1.00  0.00     0.004 C 
BRANCH   6   7
HETATM    7  C   LIG     1       0.896  -0.968  -0.102  1.00  0.00    -0.019 C 
HETATM    8  C   LIG     1       0.024   0.301  -0.162  1.00  0.00     0.010 C 
BRANCH   7   9
HETATM    9  C   LIG     1       2.284  -0.738  -0.740  1.00  0.00     0.004 C 
BRANCH   9  10
HETATM   10  C   LIG     1       3.185   0.244   0.030  1.00  0.00     0.001 C 
BRANCH  10  11
HETATM   11  C   LIG     1       4.593   0.351  -0.583  1.00  0.00     0.004 C 
BRANCH  11  12
HETATM   12  C   LIG     1       5.574   1.236   0.217  1.00  0.00    -0.019 C 
HETATM   13  C   LIG     1       5.154   2.719   0.192  1.00  0.00     0.010 C 
BRANCH  12  14
HETATM   14  C   LIG     1       7.015   1.043  -0.308  1.00  0.00     0.004 C 
BRANCH  14  15
HETATM   15  C   LIG     1       8.108   1.649   0.589  1.00  0.00     0.001 C 
BRANCH  15  16
HETATM   16  C   LIG     1       9.525   1.331   0.082  1.00  0.00     0.004 C 
BRANCH  16  17
HETATM   17  C   LIG     1      10.655   1.838   1.001  1.00  0.00    -0.023 C 
HETATM   18  C   LIG     1      12.009   1.255   0.569  1.00  0.00     0.009 C 
HETATM   19  C   LIG     1      10.728   3.374   1.054  1.00  0.00     0.009 C 
ENDBRANCH  16  17
ENDBRANCH  15  16
ENDBRANCH  14  15
ENDBRANCH  12  14
ENDBRANCH  11  12
ENDBRANCH  10  11
ENDBRANCH   9  10
ENDBRANCH   7   9
ENDBRANCH   6   7
ENDBRANCH   5   6
ENDBRANCH   4   5
ENDBRANCH   2   4
BRANCH   1  20
HETATM   20  C   LIG     1      -5.500  -4.696  -0.155  1.00  0.00     0.070 C 
BRANCH  20  21
HETATM   21  C   LIG     1      -6.399  -3.460  -0.068  1.00  0.00     0.006 A 
HETATM   22  C   LIG     1      -7.186  -3.031  -1.095  1.00  0.00    -0.001 A 
HETATM   23  C   LIG     1      -8.095  -1.858  -0.961  1.00  0.00     0.189 A 
HETATM   24  C   LIG     1      -7.234  -3.703  -2.467  1.00  0.00     0.053 C 
HETATM   25  O   LIG     1      -8.825  -1.497  -1.885  1.00  0.00    -0.287 OA
HETATM   26  C   LIG     1      -8.090  -1.143   0.343  1.00  0.00     0.029 A 
HETATM   27  C   LIG     1      -7.261  -1.577   1.407  1.00  0.00     0.029 A 
HETATM   28  C   LIG     1      -8.924  -0.015   0.526  1.00  0.00     0.016 A 
HETATM   29  C   LIG     1      -6.372  -2.760   1.250  1.00  0.00     0.190 A 
HETATM   30  C   LIG     1      -7.279  -0.873   2.635  1.00  0.00     0.016 A 
HETATM   31  O   LIG     1      -5.640  -3.132   2.169  1.00  0.00    -0.287 OA
HETATM   32  C   LIG     1      -8.112   0.248   2.806  1.00  0.00     0.001 A 
HETATM   33  C   LIG     1      -8.935   0.677   1.751  1.00  0.00     0.001 A 
ENDBRANCH  20  21
ENDBRANCH   1  20
TORSDOF 14
