REMARK  3 active torsions:
REMARK  status: ('A' for Active; 'I' for Inactive)
REMARK    1  A    between atoms: C_5  and  C_8 
REMARK    2  A    between atoms: C_11  and  N_12 
REMARK    3  A    between atoms: N_12  and  C_13 
ROOT
HETATM    1  C   LIG     1      -0.607   1.367   0.168  1.00  0.00    -0.010 A 
HETATM    2  C   LIG     1      -0.635   0.070  -0.390  1.00  0.00     0.016 A 
HETATM    3  C   LIG     1       0.542  -0.704  -0.403  1.00  0.00     0.030 A 
HETATM    4  C   LIG     1       1.741  -0.199   0.152  1.00  0.00     0.032 A 
HETATM    5  C   LIG     1       1.755   1.103   0.697  1.00  0.00     0.030 A 
HETATM    6  C   LIG     1       0.585   1.888   0.716  1.00  0.00     0.016 A 
ENDROOT
BRANCH   1   7
HETATM    7  C   LIG     1      -1.846   2.175   0.191  1.00  0.00     0.065 C 
HETATM    8  N   LIG     1      -3.004   1.604   0.278  1.00  0.00    -0.176 NA
HETATM    9  N   LIG     1      -4.156   2.353   0.296  1.00  0.00    -0.247 N 
HETATM   10  C   LIG     1      -4.263   3.664   0.003  1.00  0.00     0.237 C 
HETATM   11  H   LIG     1      -4.988   1.831   0.529  1.00  0.00     0.192 HD
HETATM   12  O   LIG     1      -5.329   4.273   0.053  1.00  0.00    -0.272 OA
HETATM   13  C   LIG     1      -2.976   4.369  -0.438  1.00  0.00     0.111 C 
HETATM   14  C   LIG     1      -1.706   3.686   0.119  1.00  0.00     0.071 C 
ENDBRANCH   1   7
BRANCH   4  15
HETATM   15  N   LIG     1       2.938  -0.928   0.142  1.00  0.00    -0.356 N 
HETATM   16  H   LIG     1       3.785  -0.380   0.155  1.00  0.00     0.166 HD
BRANCH  15  17
HETATM   17  C   LIG     1       3.118  -2.319   0.135  1.00  0.00     0.035 A 
HETATM   18  C   LIG     1       4.327  -2.847  -0.361  1.00  0.00     0.048 A 
HETATM   19  C   LIG     1       4.512  -4.244  -0.349  1.00  0.00     0.118 A 
HETATM   20  N   LIG     1       3.593  -5.110   0.126  1.00  0.00    -0.273 NA
HETATM   21  C   LIG     1       2.444  -4.600   0.616  1.00  0.00     0.118 A 
HETATM   22  C   LIG     1       2.160  -3.220   0.649  1.00  0.00     0.048 A 
ENDBRANCH  15  17
ENDBRANCH   4  15
TORSDOF 3
