REMARK  2 active torsions:
REMARK  status: ('A' for Active; 'I' for Inactive)
REMARK       I    between atoms: N_20  and  C_23 
REMARK    1  A    between atoms: C_23  and  O_25 
REMARK    2  A    between atoms: O_25  and  C_26 
ROOT
HETATM    1 CL   LIG     1      -7.066   3.501   0.915  1.00  0.00    -0.084 Cl
HETATM    2  C   LIG     1      -5.600   2.705   0.477  1.00  0.00     0.034 A 
HETATM    3  C   LIG     1      -5.185   2.683  -0.868  1.00  0.00     0.024 A 
HETATM    4  C   LIG     1      -3.988   2.031  -1.225  1.00  0.00     0.014 A 
HETATM    5  C   LIG     1      -3.199   1.408  -0.236  1.00  0.00    -0.017 A 
HETATM    6  C   LIG     1      -3.619   1.425   1.109  1.00  0.00    -0.045 A 
HETATM    7  C   LIG     1      -4.818   2.076   1.466  1.00  0.00     0.031 A 
HETATM    8  C   LIG     1      -2.757   0.755   2.165  1.00  0.00     0.044 C 
HETATM    9  C   LIG     1      -2.730  -0.783   2.067  1.00  0.00     0.045 C 
HETATM   10  C   LIG     1      -2.431  -1.453   0.719  1.00  0.00    -0.028 A 
HETATM   11  C   LIG     1      -2.533  -2.861   0.680  1.00  0.00     0.011 A 
HETATM   12  C   LIG     1      -2.289  -3.549  -0.520  1.00  0.00     0.020 A 
HETATM   13  C   LIG     1      -1.953  -2.796  -1.656  1.00  0.00     0.117 A 
HETATM   14  N   LIG     1      -1.849  -1.453  -1.643  1.00  0.00    -0.260 NA
HETATM   15  C   LIG     1      -2.062  -0.783  -0.485  1.00  0.00     0.074 A 
HETATM   16  C   LIG     1      -1.965   0.687  -0.573  1.00  0.00     0.006 C 
HETATM   17  C   LIG     1      -0.874   1.345  -1.044  1.00  0.00    -0.063 C 
HETATM   18  C   LIG     1      -0.833   2.867  -1.186  1.00  0.00     0.055 C 
HETATM   19  C   LIG     1       0.588   3.430  -1.379  1.00  0.00     0.132 C 
HETATM   20  N   LIG     1       1.552   2.756  -0.504  1.00  0.00    -0.327 N 
HETATM   21  C   LIG     1       1.630   1.289  -0.623  1.00  0.00     0.132 C 
HETATM   22  C   LIG     1       0.451   0.676  -1.407  1.00  0.00     0.055 C 
HETATM   23  C   LIG     1       2.365   3.491   0.369  1.00  0.00     0.362 C 
HETATM   24  O   LIG     1       2.344   4.715   0.518  1.00  0.00    -0.238 OA
ENDROOT
BRANCH  23  25
HETATM   25  O   LIG     1       3.205   2.674   1.038  1.00  0.00    -0.304 OA
BRANCH  25  26
HETATM   26  C   LIG     1       4.122   3.214   1.975  1.00  0.00     0.176 C 
HETATM   27  C   LIG     1       4.945   2.079   2.588  1.00  0.00     0.034 C 
ENDBRANCH  25  26
ENDBRANCH  23  25
TORSDOF 2
