REMARK  2 active torsions:
REMARK  status: ('A' for Active; 'I' for Inactive)
REMARK    1  A    between atoms: C_15  and  C_16 
REMARK    2  A    between atoms: C_16  and  N_17 
ROOT
HETATM    1  O   LIG     1       1.421   2.175   0.400  1.00  0.00    -0.292 OA
HETATM    2  C   LIG     1       0.956   1.045   0.250  1.00  0.00     0.168 C 
HETATM    3  C   LIG     1       1.759  -0.167   0.155  1.00  0.00     0.045 A 
HETATM    4  C   LIG     1       1.214  -1.382  -0.163  1.00  0.00     0.026 A 
HETATM    5  N   LIG     1       2.201  -2.363  -0.169  1.00  0.00    -0.353 N 
HETATM    6  C   LIG     1       1.982  -3.772  -0.445  1.00  0.00     0.156 C 
HETATM    7  C   LIG     1       3.426  -1.770   0.113  1.00  0.00     0.045 A 
HETATM    8  C   LIG     1       4.729  -2.299   0.208  1.00  0.00     0.030 A 
HETATM    9  C   LIG     1       5.807  -1.448   0.513  1.00  0.00     0.002 A 
HETATM   10  C   LIG     1       5.578  -0.075   0.721  1.00  0.00     0.001 A 
HETATM   11  C   LIG     1       4.274   0.449   0.625  1.00  0.00     0.015 A 
HETATM   12  C   LIG     1       3.169  -0.381   0.318  1.00  0.00     0.007 A 
HETATM   13  C   LIG     1      -0.227  -1.642  -0.450  1.00  0.00     0.059 C 
HETATM   14  C   LIG     1      -0.979  -0.331  -0.744  1.00  0.00     0.020 C 
HETATM   15  C   LIG     1      -0.577   0.834   0.202  1.00  0.00     0.079 C 
ENDROOT
BRANCH  15  16
HETATM   16  C   LIG     1      -1.329   2.153  -0.108  1.00  0.00     0.142 C 
BRANCH  16  17
HETATM   17  N   LIG     1      -2.775   1.995  -0.152  1.00  0.00    -0.343 N 
HETATM   18  C   LIG     1      -3.636   1.902   0.881  1.00  0.00     0.101 A 
HETATM   19  N   LIG     1      -4.901   1.765   0.496  1.00  0.00    -0.246 NA
HETATM   20  C   LIG     1      -3.205   1.947   2.311  1.00  0.00     0.091 C 
HETATM   21  C   LIG     1      -4.853   1.778  -0.893  1.00  0.00     0.136 A 
HETATM   22  C   LIG     1      -3.550   1.923  -1.303  1.00  0.00     0.111 A 
ENDBRANCH  16  17
ENDBRANCH  15  16
TORSDOF 2
