REMARK  3 active torsions:
REMARK  status: ('A' for Active; 'I' for Inactive)
REMARK    1  A    between atoms: C_3  and  N_4 
REMARK    2  A    between atoms: N_13  and  C_24 
REMARK    3  A    between atoms: C_15  and  C_21 
ROOT
HETATM    1  F   LIG     1      -2.312   2.010   0.191  1.00  0.00    -0.203 F 
HETATM    2  C   LIG     1      -1.050   1.517   0.228  1.00  0.00     0.149 A 
HETATM    3  C   LIG     1      -0.834   0.144   0.491  1.00  0.00     0.072 A 
HETATM    4  C   LIG     1       0.487  -0.345   0.488  1.00  0.00     0.063 A 
HETATM    5  C   LIG     1       1.588   0.506   0.240  1.00  0.00     0.051 A 
HETATM    6  N   LIG     1       2.953  -0.038   0.251  1.00  0.00    -0.354 N 
HETATM    7  C   LIG     1       4.002   0.708   0.093  1.00  0.00     0.088 C 
HETATM    8  C   LIG     1       3.922   2.208   0.095  1.00  0.00     0.200 C 
HETATM    9  C   LIG     1       2.555   2.732  -0.398  1.00  0.00     0.181 C 
HETATM   10  O   LIG     1       2.481   3.804  -1.002  1.00  0.00    -0.291 OA
HETATM   11  C   LIG     1       1.369   1.884  -0.042  1.00  0.00     0.047 A 
HETATM   12  C   LIG     1       0.034   2.388  -0.035  1.00  0.00    -0.005 A 
HETATM   13  C   LIG     1      -0.285   3.858  -0.294  1.00  0.00     0.052 C 
ENDROOT
BRANCH   3  14
HETATM   14  N   LIG     1      -1.886  -0.757   0.756  1.00  0.00    -0.375 N 
HETATM   15  C   LIG     1      -1.986  -1.977  -0.039  1.00  0.00     0.155 C 
HETATM   16  C   LIG     1      -3.227  -1.931  -0.956  1.00  0.00     0.199 C 
HETATM   17  N   LIG     1      -4.439  -1.595  -0.171  1.00  0.00    -0.068 N 
HETATM   18  C   LIG     1      -3.425  -3.250  -1.713  1.00  0.00     0.041 C 
HETATM   19  C   LIG     1      -4.316  -0.330   0.588  1.00  0.00     0.252 C 
HETATM   20  H   LIG     1      -5.229  -1.527  -0.797  1.00  0.00     0.277 HD
HETATM   21  H   LIG     1      -4.607  -2.343   0.486  1.00  0.00     0.277 HD
HETATM   22  C   LIG     1      -3.075  -0.355   1.502  1.00  0.00     0.150 C 
ENDBRANCH   3  14
BRANCH   6  23
HETATM   23  C   LIG     1       3.144  -1.515   0.349  1.00  0.00     0.089 A 
HETATM   24  C   LIG     1       4.297  -2.046   1.192  1.00  0.00     0.028 A 
HETATM   25  C   LIG     1       2.889  -2.100   1.726  1.00  0.00     0.028 A 
ENDBRANCH   6  23
BRANCH   8  26
HETATM   26  C   LIG     1       5.085   2.762  -0.747  1.00  0.00     0.190 C 
HETATM   27  O   LIG     1       5.185   2.388  -1.938  1.00  0.00    -0.647 OA
HETATM   28  O   LIG     1       5.877   3.534  -0.163  1.00  0.00    -0.647 OA
ENDBRANCH   8  26
TORSDOF 3
