REMARK  7 active torsions:
REMARK  status: ('A' for Active; 'I' for Inactive)
REMARK    1  A    between atoms: O_1  and  C_2 
REMARK    2  A    between atoms: O_1  and  C_7 
REMARK    3  A    between atoms: C_2  and  C_3 
REMARK    4  A    between atoms: C_3  and  O_4 
REMARK    5  A    between atoms: C_3  and  C_5 
REMARK    6  A    between atoms: C_5  and  O_6 
REMARK    7  A    between atoms: C_8  and  O_9 
ROOT
HETATM    1  C   LIG     1       1.010   0.437  -0.268  1.00  0.00     0.102 A 
HETATM    2  C   LIG     1       2.166  -0.280   0.162  1.00  0.00     0.101 A 
HETATM    3  C   LIG     1       3.379   0.435   0.347  1.00  0.00     0.039 A 
HETATM    4  C   LIG     1       3.453   1.817   0.096  1.00  0.00     0.003 A 
HETATM    5  C   LIG     1       2.317   2.510  -0.352  1.00  0.00     0.003 A 
HETATM    6  C   LIG     1       1.108   1.818  -0.536  1.00  0.00     0.039 A 
ENDROOT
BRANCH   1   7
HETATM    7  O   LIG     1      -0.234  -0.117  -0.483  1.00  0.00    -0.346 OA
BRANCH   7   8
HETATM    8  C   LIG     1      -0.658  -1.200   0.336  1.00  0.00     0.209 C 
BRANCH   8   9
HETATM    9  C   LIG     1      -2.195  -1.256   0.377  1.00  0.00     0.166 C 
BRANCH   9  10
HETATM   10  O   LIG     1      -2.665  -0.242   1.243  1.00  0.00    -0.391 OA
HETATM   11  H   LIG     1      -2.262  -0.358   2.090  1.00  0.00     0.210 HD
ENDBRANCH   9  10
BRANCH   9  12
HETATM   12  C   LIG     1      -2.850  -1.117  -1.008  1.00  0.00     0.198 C 
BRANCH  12  13
HETATM   13  O   LIG     1      -4.209  -1.494  -0.935  1.00  0.00    -0.398 OA
HETATM   14  H   LIG     1      -4.629  -0.943  -0.291  1.00  0.00     0.209 HD
ENDBRANCH  12  13
ENDBRANCH   9  12
ENDBRANCH   8   9
ENDBRANCH   7   8
ENDBRANCH   1   7
BRANCH   2  15
HETATM   15  O   LIG     1       2.079  -1.644   0.356  1.00  0.00    -0.353 OA
HETATM   16  C   LIG     1       3.231  -2.353   0.787  1.00  0.00     0.210 C 
ENDBRANCH   2  15
TORSDOF 7
