REMARK  13 active torsions:
REMARK  status: ('A' for Active; 'I' for Inactive)
REMARK    1  A    between atoms: O_1  and  C_3 
REMARK    2  A    between atoms: C_6  and  C_11 
REMARK    3  A    between atoms: C_8  and  O_9 
REMARK    4  A    between atoms: C_11  and  C_12 
REMARK    5  A    between atoms: C_12  and  N_13 
REMARK    6  A    between atoms: N_13  and  C_15 
REMARK    7  A    between atoms: C_15  and  C_16 
REMARK    8  A    between atoms: C_16  and  C_17 
REMARK    9  A    between atoms: C_17  and  C_18 
REMARK   10  A    between atoms: C_18  and  C_21 
REMARK   11  A    between atoms: C_18  and  C_31 
REMARK   12  A    between atoms: C_24  and  O_25 
REMARK   13  A    between atoms: C_27  and  O_28 
ROOT
HETATM    1  C   LIG     1       2.547  -3.123  -0.255  1.00  0.00     0.079 C 
HETATM    2  C   LIG     1       2.855  -4.228  -1.190  1.00  0.00     0.074 C 
HETATM    3  N   LIG     1       3.094  -5.093  -1.921  1.00  0.00    -0.196 NA
ENDROOT
BRANCH   1   4
HETATM    4  C   LIG     1       1.255  -2.450  -0.804  1.00  0.00     0.032 C 
BRANCH   4   5
HETATM    5  C   LIG     1       0.995  -0.989  -0.375  1.00  0.00     0.030 C 
BRANCH   5   6
HETATM    6  C   LIG     1      -0.365  -0.468  -0.873  1.00  0.00     0.234 C 
BRANCH   6   7
HETATM    7  N   LIG     1      -0.685   0.895  -0.370  1.00  0.00    -0.075 N 
HETATM    8  H   LIG     1      -0.475   0.883   0.619  1.00  0.00     0.279 HD
HETATM    9  C   LIG     1       0.165   1.945  -0.988  1.00  0.00     0.269 C 
BRANCH   7  10
HETATM   10  C   LIG     1      -2.135   1.205  -0.478  1.00  0.00     0.239 C 
BRANCH  10  11
HETATM   11  C   LIG     1      -2.583   2.310   0.497  1.00  0.00     0.066 C 
BRANCH  11  12
HETATM   12  C   LIG     1      -4.075   2.571   0.408  1.00  0.00    -0.054 A 
HETATM   13  C   LIG     1      -4.574   3.516  -0.507  1.00  0.00     0.010 A 
HETATM   14  C   LIG     1      -5.957   3.754  -0.593  1.00  0.00     0.040 A 
HETATM   15  C   LIG     1      -6.863   3.049   0.239  1.00  0.00     0.101 A 
HETATM   16  C   LIG     1      -6.366   2.098   1.160  1.00  0.00     0.102 A 
HETATM   17  C   LIG     1      -4.969   1.865   1.238  1.00  0.00     0.046 A 
BRANCH  15  18
HETATM   18  O   LIG     1      -8.230   3.234   0.207  1.00  0.00    -0.353 OA
HETATM   19  C   LIG     1      -8.761   4.184  -0.706  1.00  0.00     0.210 C 
ENDBRANCH  15  18
BRANCH  16  20
HETATM   20  O   LIG     1      -7.293   1.441   1.942  1.00  0.00    -0.353 OA
HETATM   21  C   LIG     1      -6.828   0.481   2.880  1.00  0.00     0.210 C 
ENDBRANCH  16  20
ENDBRANCH  11  12
ENDBRANCH  10  11
ENDBRANCH   7  10
ENDBRANCH   6   7
ENDBRANCH   5   6
ENDBRANCH   4   5
ENDBRANCH   1   4
BRANCH   1  22
HETATM   22  C   LIG     1       3.733  -2.131  -0.301  1.00  0.00    -0.032 A 
HETATM   23  C   LIG     1       4.162  -1.395   0.825  1.00  0.00     0.048 A 
HETATM   24  C   LIG     1       5.228  -0.474   0.763  1.00  0.00     0.102 A 
HETATM   25  C   LIG     1       5.876  -0.232  -0.482  1.00  0.00     0.101 A 
HETATM   26  C   LIG     1       5.439  -0.958  -1.618  1.00  0.00     0.040 A 
HETATM   27  C   LIG     1       4.387  -1.885  -1.528  1.00  0.00     0.012 A 
BRANCH  24  28
HETATM   28  O   LIG     1       5.527   0.148   1.959  1.00  0.00    -0.353 OA
HETATM   29  C   LIG     1       6.845   0.621   2.189  1.00  0.00     0.210 C 
ENDBRANCH  24  28
BRANCH  25  30
HETATM   30  O   LIG     1       6.877   0.716  -0.556  1.00  0.00    -0.353 OA
HETATM   31  C   LIG     1       7.529   0.935  -1.799  1.00  0.00     0.210 C 
ENDBRANCH  25  30
ENDBRANCH   1  22
BRANCH   1  32
HETATM   32  C   LIG     1       2.305  -3.853   1.119  1.00  0.00     0.004 C 
HETATM   33  C   LIG     1       3.576  -4.460   1.750  1.00  0.00     0.011 C 
HETATM   34  C   LIG     1       1.445  -3.124   2.175  1.00  0.00     0.011 C 
ENDBRANCH   1  32
TORSDOF 13
