REMARK  13 active torsions:
REMARK  status: ('A' for Active; 'I' for Inactive)
REMARK    1  A    between atoms: S_1  and  C_3 
REMARK    2  A    between atoms: S_1  and  C_6 
REMARK    3  A    between atoms: C_3  and  C_4 
REMARK    4  A    between atoms: C_6  and  C_7 
REMARK    5  A    between atoms: C_7  and  C_8 
REMARK    6  A    between atoms: C_8  and  N_9 
REMARK    7  A    between atoms: N_9  and  C_10 
REMARK    8  A    between atoms: N_9  and  C_12 
REMARK    9  A    between atoms: C_12  and  C_13 
REMARK   10  A    between atoms: C_13  and  O_14 
REMARK   11  A    between atoms: C_13  and  C_15 
REMARK   12  A    between atoms: C_15  and  O_16 
REMARK   13  A    between atoms: O_16  and  C_17 
ROOT
HETATM    1  C   LIG     1      -0.562   1.336  -0.359  1.00  0.00     0.069 A 
HETATM    2  C   LIG     1       0.721   0.812  -0.664  1.00  0.00     0.038 A 
HETATM    3  C   LIG     1       1.818   1.676  -0.852  1.00  0.00     0.025 A 
HETATM    4  C   LIG     1       1.649   3.071  -0.742  1.00  0.00     0.044 A 
HETATM    5  C   LIG     1       2.782   3.961  -0.937  1.00  0.00     0.099 C 
HETATM    6  N   LIG     1       3.683   4.670  -1.093  1.00  0.00    -0.191 NA
HETATM    7  C   LIG     1       0.378   3.598  -0.441  1.00  0.00     0.025 A 
HETATM    8  C   LIG     1      -0.717   2.733  -0.252  1.00  0.00     0.038 A 
ENDROOT
BRANCH   1   9
HETATM    9  O   LIG     1      -1.687   0.565  -0.158  1.00  0.00    -0.349 OA
BRANCH   9  10
HETATM   10  C   LIG     1      -1.558  -0.847  -0.250  1.00  0.00     0.209 C 
BRANCH  10  11
HETATM   11  C   LIG     1      -2.923  -1.493   0.039  1.00  0.00     0.168 C 
BRANCH  11  12
HETATM   12  C   LIG     1      -3.055  -2.950  -0.454  1.00  0.00     0.268 C 
BRANCH  12  13
HETATM   13  N   LIG     1      -2.134  -3.874   0.266  1.00  0.00    -0.069 N 
HETATM   14  H   LIG     1      -1.873  -3.375   1.105  1.00  0.00     0.280 HD
BRANCH  13  15
HETATM   15  C   LIG     1      -0.871  -4.139  -0.473  1.00  0.00     0.235 C 
BRANCH  15  16
HETATM   16  C   LIG     1       0.321  -4.292   0.484  1.00  0.00     0.040 C 
BRANCH  16  17
HETATM   17  C   LIG     1       1.647  -4.491  -0.261  1.00  0.00     0.110 C 
BRANCH  17  18
HETATM   18  S   LIG     1       3.004  -4.560   1.001  1.00  0.00     0.015 S 
HETATM   19  O   LIG     1       3.131  -3.151   1.581  1.00  0.00    -0.258 OA
BRANCH  18  20
HETATM   20  C   LIG     1       4.404  -4.780  -0.197  1.00  0.00     0.108 C 
BRANCH  20  21
HETATM   21  C   LIG     1       5.705  -4.896   0.608  1.00  0.00     0.008 C 
HETATM   22  C   LIG     1       6.934  -5.082  -0.288  1.00  0.00     0.006 C 
ENDBRANCH  20  21
ENDBRANCH  18  20
ENDBRANCH  17  18
ENDBRANCH  16  17
ENDBRANCH  15  16
ENDBRANCH  13  15
BRANCH  13  23
HETATM   23  C   LIG     1      -2.795  -5.123   0.727  1.00  0.00     0.230 C 
HETATM   24  C   LIG     1      -3.676  -4.888   1.962  1.00  0.00     0.034 C 
ENDBRANCH  13  23
ENDBRANCH  12  13
ENDBRANCH  11  12
BRANCH  11  25
HETATM   25  O   LIG     1      -3.160  -1.476   1.432  1.00  0.00    -0.392 OA
HETATM   26  H   LIG     1      -3.146  -0.577   1.727  1.00  0.00     0.210 HD
ENDBRANCH  11  25
ENDBRANCH  10  11
ENDBRANCH   9  10
ENDBRANCH   1   9
TORSDOF 13
