REMARK  1 active torsions:
REMARK  status: ('A' for Active; 'I' for Inactive)
REMARK    1  A    between atoms: C_8  and  O_9 
ROOT
HETATM    1  O   LIG     1       1.142   3.452   1.995  1.00  0.00    -0.288 OA
HETATM    2  C   LIG     1       1.359   2.431   1.343  1.00  0.00     0.177 A 
HETATM    3  C   LIG     1       2.605   1.697   1.564  1.00  0.00     0.052 A 
HETATM    4  C   LIG     1       2.882   0.592   0.863  1.00  0.00    -0.009 A 
HETATM    5  C   LIG     1       1.987  -0.023  -0.200  1.00  0.00     0.003 A 
HETATM    6  C   LIG     1       2.763   0.062  -1.534  1.00  0.00     0.025 C 
HETATM    7  C   LIG     1       1.742  -1.494   0.203  1.00  0.00     0.050 C 
HETATM    8  C   LIG     1       0.814  -2.233  -0.768  1.00  0.00     0.127 C 
HETATM    9  C   LIG     1      -0.498  -1.477  -1.053  1.00  0.00     0.061 C 
HETATM   10  C   LIG     1      -0.342   0.040  -1.298  1.00  0.00     0.170 C 
HETATM   11  O   LIG     1      -1.701   0.450  -1.176  1.00  0.00    -0.311 OA
HETATM   12  C   LIG     1      -2.482  -0.385  -0.481  1.00  0.00     0.263 C 
HETATM   13  O   LIG     1      -3.668  -0.219  -0.204  1.00  0.00    -0.265 OA
HETATM   14  C   LIG     1      -1.675  -1.603  -0.069  1.00  0.00     0.091 C 
HETATM   15  C   LIG     1      -1.356  -1.539   1.437  1.00  0.00     0.021 C 
HETATM   16  C   LIG     1       0.645   0.738  -0.328  1.00  0.00    -0.028 A 
HETATM   17  C   LIG     1       0.386   1.899   0.346  1.00  0.00    -0.006 A 
HETATM   18  C   LIG     1      -0.873   2.754   0.185  1.00  0.00     0.052 C 
ENDROOT
BRANCH   8  19
HETATM   19  O   LIG     1       0.559  -3.550  -0.323  1.00  0.00    -0.395 OA
HETATM   20  H   LIG     1       0.089  -3.506   0.496  1.00  0.00     0.210 HD
ENDBRANCH   8  19
TORSDOF 1
