REMARK  4 active torsions:
REMARK  status: ('A' for Active; 'I' for Inactive)
REMARK       I    between atoms: C_2  and  N_3 
REMARK    1  A    between atoms: C_2  and  C_19 
REMARK    2  A    between atoms: N_7  and  C_12 
REMARK    3  A    between atoms: C_12  and  C_13 
REMARK    4  A    between atoms: C_22  and  N_23 
ROOT
HETATM    1  O   LIG     1      -0.286   4.022   1.850  1.00  0.00    -0.267 OA
HETATM    2  C   LIG     1      -0.567   3.489   0.776  1.00  0.00     0.253 C 
HETATM    3  N   LIG     1       0.236   3.564  -0.317  1.00  0.00    -0.347 N 
HETATM    4  C   LIG     1       0.132   2.709  -1.517  1.00  0.00     0.132 C 
HETATM    5  C   LIG     1       1.441   1.911  -1.732  1.00  0.00     0.030 C 
HETATM    6  C   LIG     1       1.703   0.907  -0.574  1.00  0.00     0.241 C 
HETATM    7  N   LIG     1       2.861   1.250   0.308  1.00  0.00    -0.066 N 
HETATM    8  C   LIG     1       3.017   2.705   0.613  1.00  0.00     0.241 C 
HETATM    9  C   LIG     1       2.712   3.662  -0.574  1.00  0.00     0.030 C 
HETATM   10  C   LIG     1       1.405   4.462  -0.358  1.00  0.00     0.132 C 
HETATM   11  C   LIG     1       2.598   2.904  -1.900  1.00  0.00     0.015 C 
HETATM   12  H   LIG     1       2.638   0.835   1.201  1.00  0.00     0.280 HD
ENDROOT
BRANCH   2  13
HETATM   13  C   LIG     1      -1.856   2.725   0.675  1.00  0.00     0.032 A 
HETATM   14  C   LIG     1      -2.150   1.718   1.619  1.00  0.00     0.019 A 
HETATM   15  C   LIG     1      -3.369   1.014   1.553  1.00  0.00     0.030 A 
HETATM   16  C   LIG     1      -4.309   1.323   0.551  1.00  0.00     0.025 A 
HETATM   17  C   LIG     1      -4.031   2.342  -0.381  1.00  0.00     0.030 A 
HETATM   18  C   LIG     1      -2.813   3.046  -0.315  1.00  0.00     0.019 A 
BRANCH  16  19
HETATM   19  N   LIG     1      -5.514   0.626   0.485  1.00  0.00    -0.399 N 
HETATM   20  H   LIG     1      -6.238   0.893  -0.166  1.00  0.00     0.156 HD
HETATM   21  H   LIG     1      -5.771  -0.043   1.198  1.00  0.00     0.156 HD
ENDBRANCH  16  19
ENDBRANCH   2  13
BRANCH   7  22
HETATM   22  C   LIG     1       4.131   0.565  -0.055  1.00  0.00     0.273 C 
BRANCH  22  23
HETATM   23  C   LIG     1       4.095  -0.908   0.310  1.00  0.00    -0.033 A 
HETATM   24  C   LIG     1       4.230  -1.304   1.658  1.00  0.00     0.009 A 
HETATM   25  C   LIG     1       4.196  -2.669   2.002  1.00  0.00     0.001 A 
HETATM   26  C   LIG     1       4.029  -3.644   1.001  1.00  0.00     0.000 A 
HETATM   27  C   LIG     1       3.898  -3.255  -0.346  1.00  0.00     0.001 A 
HETATM   28  C   LIG     1       3.933  -1.890  -0.692  1.00  0.00     0.009 A 
ENDBRANCH  22  23
ENDBRANCH   7  22
TORSDOF 4
