REMARK  9 active torsions:
REMARK  status: ('A' for Active; 'I' for Inactive)
REMARK    1  A    between atoms: C_4  and  C_27 
REMARK    2  A    between atoms: N_5  and  C_6 
REMARK    3  A    between atoms: C_6  and  C_7 
REMARK    4  A    between atoms: C_10  and  C_13 
REMARK    5  A    between atoms: C_18  and  C_19 
REMARK    6  A    between atoms: C_24  and  C_25 
REMARK    7  A    between atoms: C_25  and  O_26 
REMARK    8  A    between atoms: C_27  and  C_28 
REMARK    9  A    between atoms: C_28  and  C_29 
ROOT
HETATM    1  C   LIG     1       0.561   0.401  -0.988  1.00  0.00    -0.040 A 
HETATM    2  C   LIG     1       1.140  -0.421   0.002  1.00  0.00     0.010 A 
HETATM    3  C   LIG     1       2.519  -0.340   0.274  1.00  0.00     0.013 A 
HETATM    4  C   LIG     1       3.347   0.553  -0.440  1.00  0.00    -0.025 A 
HETATM    5  C   LIG     1       2.759   1.375  -1.426  1.00  0.00     0.013 A 
HETATM    6  C   LIG     1       1.381   1.299  -1.702  1.00  0.00     0.010 A 
ENDROOT
BRANCH   1   7
HETATM    7  C   LIG     1      -0.925   0.318  -1.297  1.00  0.00     0.169 C 
BRANCH   7   8
HETATM    8  N   LIG     1      -1.750   0.485  -0.104  1.00  0.00    -0.330 N 
HETATM    9  C   LIG     1      -2.407  -0.469   0.590  1.00  0.00     0.108 A 
HETATM   10  N   LIG     1      -3.089   0.011   1.624  1.00  0.00    -0.221 NA
HETATM   11  C   LIG     1      -2.847   1.377   1.608  1.00  0.00     0.152 A 
HETATM   12 CL   LIG     1      -3.505   2.450   2.751  1.00  0.00    -0.060 Cl
HETATM   13  C   LIG     1      -2.025   1.688   0.550  1.00  0.00     0.077 A 
BRANCH   9  14
HETATM   14  C   LIG     1      -2.408  -1.922   0.221  1.00  0.00     0.079 C 
BRANCH  14  15
HETATM   15  C   LIG     1      -3.536  -2.280  -0.758  1.00  0.00     0.007 C 
BRANCH  15  16
HETATM   16  C   LIG     1      -3.537  -3.767  -1.137  1.00  0.00    -0.004 C 
HETATM   17  C   LIG     1      -4.661  -4.125  -2.115  1.00  0.00     0.005 C 
ENDBRANCH  15  16
ENDBRANCH  14  15
ENDBRANCH   9  14
BRANCH  13  18
HETATM   18  C   LIG     1      -1.493   3.019   0.118  1.00  0.00     0.224 C 
BRANCH  18  19
HETATM   19  O   LIG     1      -2.205   3.552  -0.977  1.00  0.00    -0.395 OA
HETATM   20  H   LIG     1      -2.087   2.981  -1.720  1.00  0.00     0.209 HD
ENDBRANCH  18  19
ENDBRANCH  13  18
ENDBRANCH   7   8
ENDBRANCH   1   7
BRANCH   4  21
HETATM   21  C   LIG     1       4.794   0.639  -0.159  1.00  0.00    -0.012 A 
HETATM   22  C   LIG     1       5.662  -0.485  -0.268  1.00  0.00     0.025 A 
HETATM   23  C   LIG     1       7.030  -0.329   0.050  1.00  0.00     0.016 A 
HETATM   24  C   LIG     1       7.547   0.914   0.455  1.00  0.00     0.001 A 
HETATM   25  C   LIG     1       6.694   2.026   0.548  1.00  0.00     0.001 A 
HETATM   26  C   LIG     1       5.329   1.884   0.242  1.00  0.00     0.013 A 
BRANCH  22  27
HETATM   27  C   LIG     1       5.192  -1.811  -0.713  1.00  0.00     0.194 A 
HETATM   28  N   LIG     1       4.679  -2.023  -1.931  1.00  0.00    -0.140 NA
HETATM   29  N   LIG     1       4.402  -3.336  -1.903  1.00  0.00     0.020 NA
HETATM   30  N   LIG     1       4.758  -3.854  -0.715  1.00  0.00     0.020 NA
HETATM   31  N   LIG     1       5.277  -2.895   0.068  1.00  0.00    -0.140 NA
ENDBRANCH  22  27
ENDBRANCH   4  21
TORSDOF 9
