REMARK  7 active torsions:
REMARK  status: ('A' for Active; 'I' for Inactive)
REMARK    1  A    between atoms: S_1  and  N_4 
REMARK    2  A    between atoms: S_1  and  C_15 
REMARK       I    between atoms: N_4  and  C_5 
REMARK       I    between atoms: C_5  and  N_7 
REMARK    3  A    between atoms: N_7  and  C_8 
REMARK    4  A    between atoms: C_18  and  C_21 
REMARK    5  A    between atoms: C_21  and  C_22 
REMARK    6  A    between atoms: C_22  and  N_23 
REMARK       I    between atoms: N_23  and  C_24 
REMARK       I    between atoms: C_24  and  N_26 
REMARK    7  A    between atoms: C_30  and  C_31 
ROOT
HETATM    1  C   LIG     1      -0.694   3.707   1.376  1.00  0.00     0.081 A 
HETATM    2  C   LIG     1      -0.128   3.091   2.510  1.00  0.00     0.026 A 
HETATM    3  C   LIG     1       0.968   2.220   2.359  1.00  0.00     0.009 A 
HETATM    4  C   LIG     1       1.499   1.964   1.076  1.00  0.00    -0.057 A 
HETATM    5  C   LIG     1       0.929   2.587  -0.055  1.00  0.00     0.009 A 
HETATM    6  C   LIG     1      -0.166   3.459   0.092  1.00  0.00     0.026 A 
ENDROOT
BRANCH   1   7
HETATM    7  S   LIG     1      -2.095   4.812   1.579  1.00  0.00     0.287 S 
HETATM    8  O   LIG     1      -2.282   5.528   0.306  1.00  0.00    -0.198 OA
HETATM    9  O   LIG     1      -1.792   5.620   2.771  1.00  0.00    -0.198 OA
BRANCH   7  10
HETATM   10  N   LIG     1      -3.237   3.697   1.878  1.00  0.00    -0.102 NA
HETATM   11  C   LIG     1      -3.735   2.868   0.935  1.00  0.00     0.353 C 
HETATM   12  O   LIG     1      -3.411   2.838  -0.249  1.00  0.00    -0.244 OA
HETATM   13  N   LIG     1      -4.659   2.022   1.415  1.00  0.00    -0.336 N 
HETATM   14  H   LIG     1      -4.855   2.126   2.400  1.00  0.00     0.164 HD
BRANCH  13  15
HETATM   15  C   LIG     1      -5.416   0.962   0.741  1.00  0.00     0.086 C 
HETATM   16  C   LIG     1      -4.566  -0.247   0.286  1.00  0.00     0.026 C 
HETATM   17  C   LIG     1      -4.089  -0.178  -1.175  1.00  0.00     0.006 C 
HETATM   18  C   LIG     1      -5.239   0.147  -2.144  1.00  0.00    -0.019 C 
HETATM   19  C   LIG     1      -5.908   1.477  -1.756  1.00  0.00     0.006 C 
HETATM   20  C   LIG     1      -4.752   0.171  -3.600  1.00  0.00     0.010 C 
HETATM   21  C   LIG     1      -6.435   1.461  -0.310  1.00  0.00     0.026 C 
ENDBRANCH  13  15
ENDBRANCH   7  10
ENDBRANCH   1   7
BRANCH   4  22
HETATM   22  C   LIG     1       2.681   1.029   0.914  1.00  0.00     0.058 C 
BRANCH  22  23
HETATM   23  C   LIG     1       4.022   1.779   0.966  1.00  0.00     0.129 C 
BRANCH  23  24
HETATM   24  N   LIG     1       5.152   0.866   0.844  1.00  0.00    -0.342 N 
HETATM   25  C   LIG     1       5.620   0.355  -0.310  1.00  0.00     0.325 C 
HETATM   26  O   LIG     1       5.105   0.638  -1.395  1.00  0.00    -0.247 OA
HETATM   27  N   LIG     1       6.685  -0.478  -0.150  1.00  0.00    -0.262 N 
HETATM   28  C   LIG     1       7.341  -1.122  -1.157  1.00  0.00     0.258 A 
HETATM   29  C   LIG     1       7.282  -0.805   1.154  1.00  0.00     0.171 A 
HETATM   30  C   LIG     1       8.408  -1.906  -0.562  1.00  0.00     0.013 A 
HETATM   31  O   LIG     1       7.089  -1.058  -2.362  1.00  0.00    -0.267 OA
HETATM   32  C   LIG     1       8.383  -1.736   0.760  1.00  0.00    -0.054 A 
HETATM   33  C   LIG     1       9.286  -2.351   1.810  1.00  0.00     0.046 C 
HETATM   34  H   LIG     1       5.617   0.599   1.699  1.00  0.00     0.164 HD
BRANCH  30  35
HETATM   35  C   LIG     1       9.338  -2.792  -1.374  1.00  0.00     0.040 C 
HETATM   36  C   LIG     1      10.589  -2.041  -1.844  1.00  0.00     0.010 C 
ENDBRANCH  30  35
ENDBRANCH  23  24
ENDBRANCH  22  23
ENDBRANCH   4  22
TORSDOF 7
