REMARK  6 active torsions:
REMARK  status: ('A' for Active; 'I' for Inactive)
REMARK    1  A    between atoms: C_5  and  C_8 
REMARK    2  A    between atoms: C_8  and  C_10 
REMARK    3  A    between atoms: C_10  and  C_11 
REMARK    4  A    between atoms: C_11  and  C_12 
REMARK    5  A    between atoms: C_12  and  N_13 
REMARK    6  A    between atoms: C_16  and  N_17 
ROOT
HETATM    1  N   LIG     1      -0.058   0.586   1.056  1.00  0.00    -0.068 N 
HETATM    2  C   LIG     1      -0.905   1.760   0.719  1.00  0.00     0.264 C 
HETATM    3  C   LIG     1      -2.307   1.365   0.276  1.00  0.00     0.026 C 
HETATM    4  C   LIG     1      -2.839   0.138   0.479  1.00  0.00     0.021 C 
HETATM    5  C   LIG     1      -2.012  -0.951   1.154  1.00  0.00     0.085 C 
HETATM    6  C   LIG     1      -0.790  -0.389   1.901  1.00  0.00     0.241 C 
HETATM    7  H   LIG     1       0.138   0.120   0.181  1.00  0.00     0.280 HD
ENDROOT
BRANCH   1   8
HETATM    8  C   LIG     1       1.257   0.988   1.616  1.00  0.00     0.235 C 
BRANCH   8   9
HETATM    9  C   LIG     1       2.339  -0.086   1.409  1.00  0.00     0.035 C 
BRANCH   9  10
HETATM   10  C   LIG     1       3.712   0.375   1.926  1.00  0.00     0.085 C 
BRANCH  10  11
HETATM   11  C   LIG     1       4.790  -0.701   1.751  1.00  0.00     0.159 C 
HETATM   12  O   LIG     1       5.071  -1.404   2.721  1.00  0.00    -0.292 OA
BRANCH  11  13
HETATM   13  C   LIG     1       5.441  -0.853   0.416  1.00  0.00     0.010 A 
HETATM   14  C   LIG     1       6.417  -1.863   0.239  1.00  0.00     0.018 A 
HETATM   15  C   LIG     1       7.054  -2.038  -1.004  1.00  0.00     0.043 A 
HETATM   16  C   LIG     1       6.725  -1.205  -2.089  1.00  0.00     0.116 A 
HETATM   17  F   LIG     1       7.337  -1.373  -3.285  1.00  0.00    -0.206 F 
HETATM   18  C   LIG     1       5.757  -0.196  -1.927  1.00  0.00     0.043 A 
HETATM   19  C   LIG     1       5.119  -0.020  -0.684  1.00  0.00     0.018 A 
ENDBRANCH  11  13
ENDBRANCH  10  11
ENDBRANCH   9  10
ENDBRANCH   8   9
ENDBRANCH   1   8
BRANCH   4  20
HETATM   20  N   LIG     1      -4.186  -0.205   0.022  1.00  0.00    -0.264 N 
HETATM   21  C   LIG     1      -4.822  -1.625  -0.128  1.00  0.00     0.354 A 
HETATM   22  N   LIG     1      -6.042  -1.553  -0.762  1.00  0.00    -0.192 NA
HETATM   23  O   LIG     1      -4.199  -2.605   0.276  1.00  0.00    -0.244 OA
HETATM   24  C   LIG     1      -6.227  -0.315  -0.941  1.00  0.00     0.089 A 
HETATM   25  C   LIG     1      -5.142   0.548  -0.419  1.00  0.00     0.073 A 
HETATM   26  C   LIG     1      -7.396   0.290  -1.608  1.00  0.00     0.034 A 
HETATM   27  C   LIG     1      -5.372   1.957  -0.438  1.00  0.00     0.032 A 
HETATM   28  C   LIG     1      -6.474   2.483  -1.025  1.00  0.00     0.002 A 
HETATM   29  C   LIG     1      -7.488   1.637  -1.655  1.00  0.00     0.002 A 
ENDBRANCH   4  20
TORSDOF 6
