REMARK  11 active torsions:
REMARK  status: ('A' for Active; 'I' for Inactive)
REMARK    1  A    between atoms: O_1  and  C_2 
REMARK    2  A    between atoms: C_2  and  C_3 
REMARK    3  A    between atoms: C_2  and  C_26 
REMARK    4  A    between atoms: C_3  and  C_4 
REMARK    5  A    between atoms: C_4  and  C_5 
REMARK    6  A    between atoms: C_5  and  N_6 
REMARK    7  A    between atoms: C_9  and  C_12 
REMARK    8  A    between atoms: C_12  and  O_13 
REMARK    9  A    between atoms: C_12  and  C_14 
REMARK   10  A    between atoms: C_12  and  C_20 
REMARK   11  A    between atoms: C_29  and  C_32 
ROOT
HETATM    1  N   LIG     1       2.004   0.293   1.239  1.00  0.00    -0.071 N 
HETATM    2  C   LIG     1       2.272   1.335   0.217  1.00  0.00     0.235 C 
HETATM    3  C   LIG     1       3.413   2.262   0.662  1.00  0.00     0.036 C 
HETATM    4  C   LIG     1       4.742   1.530   1.006  1.00  0.00     0.033 C 
HETATM    5  C   LIG     1       4.410   0.334   1.940  1.00  0.00     0.036 C 
HETATM    6  C   LIG     1       3.213  -0.528   1.488  1.00  0.00     0.235 C 
HETATM    7  H   LIG     1       1.802   0.771   2.106  1.00  0.00     0.279 HD
ENDROOT
BRANCH   1   8
HETATM    8  C   LIG     1       0.815  -0.542   0.928  1.00  0.00     0.235 C 
BRANCH   8   9
HETATM    9  C   LIG     1      -0.510   0.191   1.200  1.00  0.00     0.030 C 
BRANCH   9  10
HETATM   10  C   LIG     1      -1.735  -0.714   0.981  1.00  0.00     0.038 C 
BRANCH  10  11
HETATM   11  C   LIG     1      -3.078   0.006   1.208  1.00  0.00     0.151 C 
BRANCH  11  12
HETATM   12  O   LIG     1      -3.193   0.366   2.570  1.00  0.00    -0.391 OA
HETATM   13  H   LIG     1      -3.206  -0.422   3.090  1.00  0.00     0.210 HD
ENDBRANCH  11  12
BRANCH  11  14
HETATM   14  C   LIG     1      -4.253  -0.839   0.740  1.00  0.00    -0.030 A 
HETATM   15  C   LIG     1      -4.656  -1.978   1.468  1.00  0.00     0.010 A 
HETATM   16  C   LIG     1      -5.741  -2.760   1.027  1.00  0.00     0.008 A 
HETATM   17  C   LIG     1      -6.448  -2.423  -0.154  1.00  0.00    -0.051 A 
HETATM   18  C   LIG     1      -6.031  -1.279  -0.877  1.00  0.00     0.008 A 
HETATM   19  C   LIG     1      -4.947  -0.496  -0.437  1.00  0.00     0.010 A 
BRANCH  17  20
HETATM   20  C   LIG     1      -7.640  -3.253  -0.669  1.00  0.00    -0.024 C 
HETATM   21  C   LIG     1      -8.900  -2.365  -0.733  1.00  0.00     0.019 C 
HETATM   22  C   LIG     1      -7.324  -3.793  -2.079  1.00  0.00     0.019 C 
HETATM   23  C   LIG     1      -7.966  -4.464   0.234  1.00  0.00     0.019 C 
ENDBRANCH  17  20
ENDBRANCH  11  14
ENDBRANCH  10  11
ENDBRANCH   9  10
ENDBRANCH   8   9
ENDBRANCH   1   8
BRANCH   4  24
HETATM   24  C   LIG     1       5.761   1.251  -0.174  1.00  0.00     0.116 C 
BRANCH  24  25
HETATM   25  O   LIG     1       5.724   2.424  -0.969  1.00  0.00    -0.380 OA
HETATM   26  H   LIG     1       6.349   2.325  -1.671  1.00  0.00     0.211 HD
ENDBRANCH  24  25
BRANCH  24  27
HETATM   27  C   LIG     1       7.230   1.100   0.288  1.00  0.00    -0.019 A 
HETATM   28  C   LIG     1       8.235   0.962  -0.702  1.00  0.00     0.010 A 
HETATM   29  C   LIG     1       9.591   0.822  -0.350  1.00  0.00     0.001 A 
HETATM   30  C   LIG     1       9.970   0.821   1.003  1.00  0.00     0.000 A 
HETATM   31  C   LIG     1       8.989   0.963   2.001  1.00  0.00     0.001 A 
HETATM   32  C   LIG     1       7.632   1.103   1.649  1.00  0.00     0.010 A 
ENDBRANCH  24  27
BRANCH  24  33
HETATM   33  C   LIG     1       5.364   0.015  -1.006  1.00  0.00    -0.019 A 
HETATM   34  C   LIG     1       4.582   0.148  -2.180  1.00  0.00     0.010 A 
HETATM   35  C   LIG     1       4.225  -0.982  -2.941  1.00  0.00     0.001 A 
HETATM   36  C   LIG     1       4.653  -2.263  -2.547  1.00  0.00     0.000 A 
HETATM   37  C   LIG     1       5.440  -2.411  -1.391  1.00  0.00     0.001 A 
HETATM   38  C   LIG     1       5.795  -1.282  -0.629  1.00  0.00     0.010 A 
ENDBRANCH  24  33
ENDBRANCH   4  24
TORSDOF 11
