REMARK  10 active torsions:
REMARK  status: ('A' for Active; 'I' for Inactive)
REMARK    1  A    between atoms: C_2  and  C_3 
REMARK    2  A    between atoms: C_2  and  C_26 
REMARK    3  A    between atoms: C_3  and  C_4 
REMARK    4  A    between atoms: C_4  and  C_5 
REMARK    5  A    between atoms: C_5  and  N_6 
REMARK    6  A    between atoms: C_9  and  O_10 
REMARK    7  A    between atoms: O_10  and  C_11 
REMARK    8  A    between atoms: C_11  and  C_12 
REMARK    9  A    between atoms: C_11  and  C_18 
REMARK   10  A    between atoms: C_29  and  C_32 
ROOT
HETATM    1  N   LIG     1       1.129  -1.290   2.097  1.00  0.00    -0.071 N 
HETATM    2  C   LIG     1       1.173  -1.038   0.631  1.00  0.00     0.237 C 
HETATM    3  C   LIG     1       2.126   0.121   0.291  1.00  0.00     0.059 C 
HETATM    4  C   LIG     1       3.539  -0.149   0.833  1.00  0.00     0.126 C 
HETATM    5  C   LIG     1       3.458  -0.426   2.339  1.00  0.00     0.059 C 
HETATM    6  C   LIG     1       2.483  -1.577   2.639  1.00  0.00     0.237 C 
HETATM    7  H   LIG     1       0.829  -0.431   2.536  1.00  0.00     0.279 HD
ENDROOT
BRANCH   1   8
HETATM    8  C   LIG     1       0.140  -2.329   2.485  1.00  0.00     0.235 C 
BRANCH   8   9
HETATM    9  C   LIG     1      -1.308  -1.815   2.433  1.00  0.00     0.035 C 
BRANCH   9  10
HETATM   10  C   LIG     1      -2.310  -2.867   2.940  1.00  0.00     0.085 C 
BRANCH  10  11
HETATM   11  C   LIG     1      -3.755  -2.358   2.906  1.00  0.00     0.159 C 
HETATM   12  O   LIG     1      -4.248  -1.939   3.952  1.00  0.00    -0.292 OA
BRANCH  11  13
HETATM   13  C   LIG     1      -4.494  -2.385   1.608  1.00  0.00     0.010 A 
HETATM   14  C   LIG     1      -5.813  -1.883   1.557  1.00  0.00     0.015 A 
HETATM   15  C   LIG     1      -6.544  -1.891   0.354  1.00  0.00     0.009 A 
HETATM   16  C   LIG     1      -5.977  -2.403  -0.838  1.00  0.00    -0.051 A 
HETATM   17  C   LIG     1      -4.656  -2.906  -0.781  1.00  0.00     0.009 A 
HETATM   18  C   LIG     1      -3.924  -2.899   0.421  1.00  0.00     0.015 A 
BRANCH  16  19
HETATM   19  C   LIG     1      -6.744  -2.430  -2.174  1.00  0.00    -0.024 C 
HETATM   20  C   LIG     1      -5.979  -1.601  -3.226  1.00  0.00     0.019 C 
HETATM   21  C   LIG     1      -6.873  -3.886  -2.668  1.00  0.00     0.019 C 
HETATM   22  C   LIG     1      -8.170  -1.845  -2.063  1.00  0.00     0.019 C 
ENDBRANCH  16  19
ENDBRANCH  11  13
ENDBRANCH  10  11
ENDBRANCH   9  10
ENDBRANCH   8   9
ENDBRANCH   1   8
BRANCH   4  23
HETATM   23  O   LIG     1       4.373   0.989   0.648  1.00  0.00    -0.371 OA
BRANCH  23  24
HETATM   24  C   LIG     1       5.009   1.090  -0.624  1.00  0.00     0.188 C 
BRANCH  24  25
HETATM   25  C   LIG     1       5.542   2.496  -0.856  1.00  0.00    -0.025 A 
HETATM   26  C   LIG     1       5.570   3.033  -2.162  1.00  0.00     0.010 A 
HETATM   27  C   LIG     1       6.078   4.327  -2.386  1.00  0.00     0.001 A 
HETATM   28  C   LIG     1       6.567   5.090  -1.308  1.00  0.00     0.000 A 
HETATM   29  C   LIG     1       6.549   4.556  -0.005  1.00  0.00     0.001 A 
HETATM   30  C   LIG     1       6.041   3.262   0.220  1.00  0.00     0.010 A 
ENDBRANCH  24  25
BRANCH  24  31
HETATM   31  C   LIG     1       6.122   0.065  -0.796  1.00  0.00    -0.025 A 
HETATM   32  C   LIG     1       6.309  -0.576  -2.040  1.00  0.00     0.010 A 
HETATM   33  C   LIG     1       7.345  -1.516  -2.204  1.00  0.00     0.001 A 
HETATM   34  C   LIG     1       8.202  -1.817  -1.128  1.00  0.00     0.000 A 
HETATM   35  C   LIG     1       8.024  -1.174   0.113  1.00  0.00     0.001 A 
HETATM   36  C   LIG     1       6.989  -0.234   0.278  1.00  0.00     0.010 A 
ENDBRANCH  24  31
ENDBRANCH  23  24
ENDBRANCH   4  23
TORSDOF 10
