REMARK  5 active torsions:
REMARK  status: ('A' for Active; 'I' for Inactive)
REMARK    1  A    between atoms: N_6  and  C_12 
REMARK    2  A    between atoms: N_15  and  C_18 
REMARK    3  A    between atoms: C_18  and  C_19 
REMARK    4  A    between atoms: C_19  and  C_20 
REMARK    5  A    between atoms: C_20  and  N_21 
ROOT
HETATM    1  C   LIG     1       3.804  -0.556   0.848  1.00  0.00     0.098 C 
HETATM    2  C   LIG     1       3.032   0.310   1.867  1.00  0.00     0.053 C 
HETATM    3  C   LIG     1       1.813   1.005   1.246  1.00  0.00     0.237 C 
HETATM    4  N   LIG     1       0.873   0.006   0.676  1.00  0.00    -0.071 N 
HETATM    5  C   LIG     1       1.526  -0.778  -0.404  1.00  0.00     0.237 C 
HETATM    6  C   LIG     1       2.822  -1.473   0.078  1.00  0.00     0.053 C 
HETATM    7  H   LIG     1       0.653  -0.636   1.425  1.00  0.00     0.279 HD
ENDROOT
BRANCH   4   8
HETATM    8  C   LIG     1      -0.414   0.624   0.259  1.00  0.00     0.236 C 
BRANCH   8   9
HETATM    9  C   LIG     1      -1.560  -0.398   0.142  1.00  0.00     0.048 C 
BRANCH   9  10
HETATM   10  C   LIG     1      -2.904   0.266  -0.203  1.00  0.00     0.135 C 
BRANCH  10  11
HETATM   11  N   LIG     1      -3.999  -0.714  -0.344  1.00  0.00    -0.296 N 
HETATM   12  C   LIG     1      -4.269  -1.629  -1.551  1.00  0.00     0.349 A 
HETATM   13  N   LIG     1      -5.433  -2.350  -1.358  1.00  0.00    -0.192 NA
HETATM   14  O   LIG     1      -3.461  -1.604  -2.478  1.00  0.00    -0.244 OA
HETATM   15  C   LIG     1      -5.856  -1.965  -0.224  1.00  0.00     0.089 A 
HETATM   16  C   LIG     1      -4.997  -0.955   0.422  1.00  0.00     0.067 A 
HETATM   17  C   LIG     1      -7.077  -2.418   0.469  1.00  0.00     0.034 A 
HETATM   18  C   LIG     1      -5.368  -0.443   1.692  1.00  0.00     0.032 A 
HETATM   19  C   LIG     1      -6.497  -0.880   2.300  1.00  0.00     0.002 A 
HETATM   20  C   LIG     1      -7.368  -1.885   1.679  1.00  0.00     0.002 A 
ENDBRANCH  10  11
ENDBRANCH   9  10
ENDBRANCH   8   9
ENDBRANCH   4   8
BRANCH   1  21
HETATM   21  N   LIG     1       4.791   0.228   0.038  1.00  0.00    -0.291 N 
HETATM   22  C   LIG     1       5.904   0.728   0.438  1.00  0.00     0.068 A 
HETATM   23  C   LIG     1       6.520   0.760   1.716  1.00  0.00     0.034 A 
HETATM   24  C   LIG     1       6.599   1.355  -0.697  1.00  0.00     0.090 A 
HETATM   25  C   LIG     1       7.717   1.371   1.887  1.00  0.00     0.026 A 
HETATM   26  C   LIG     1       8.425   2.019   0.775  1.00  0.00     0.036 A 
HETATM   27 CL   LIG     1       9.942   2.788   1.062  1.00  0.00    -0.084 Cl
HETATM   28  C   LIG     1       7.899   2.018  -0.472  1.00  0.00     0.058 A 
HETATM   29  N   LIG     1       5.981   1.252  -1.798  1.00  0.00    -0.192 NA
HETATM   30  C   LIG     1       4.835   0.547  -1.484  1.00  0.00     0.349 A 
HETATM   31  O   LIG     1       3.918   0.157  -2.201  1.00  0.00    -0.244 OA
ENDBRANCH   1  21
TORSDOF 5
