REMARK  0 active torsions:
REMARK  status: ('A' for Active; 'I' for Inactive)
ROOT
HETATM    1 CL   LIG     1       4.778  -4.120   0.889  1.00  0.00    -0.084 Cl
HETATM    2  C   LIG     1       3.563  -2.903   0.749  1.00  0.00     0.034 A 
HETATM    3  C   LIG     1       3.400  -1.950   1.774  1.00  0.00     0.024 A 
HETATM    4  C   LIG     1       2.407  -0.958   1.661  1.00  0.00     0.014 A 
HETATM    5  C   LIG     1       1.582  -0.909   0.516  1.00  0.00    -0.017 A 
HETATM    6  C   LIG     1       1.740  -1.868  -0.503  1.00  0.00    -0.045 A 
HETATM    7  C   LIG     1       2.733  -2.863  -0.388  1.00  0.00     0.031 A 
HETATM    8  C   LIG     1       0.843  -1.806  -1.726  1.00  0.00     0.044 C 
HETATM    9  C   LIG     1      -0.628  -2.173  -1.442  1.00  0.00     0.045 C 
HETATM   10  C   LIG     1      -1.364  -1.503  -0.274  1.00  0.00    -0.028 A 
HETATM   11  C   LIG     1      -2.666  -1.973   0.001  1.00  0.00     0.011 A 
HETATM   12  C   LIG     1      -3.402  -1.422   1.063  1.00  0.00     0.020 A 
HETATM   13  C   LIG     1      -2.800  -0.410   1.829  1.00  0.00     0.117 A 
HETATM   14  N   LIG     1      -1.560   0.055   1.585  1.00  0.00    -0.260 NA
HETATM   15  C   LIG     1      -0.851  -0.457   0.550  1.00  0.00     0.074 A 
HETATM   16  C   LIG     1       0.511   0.086   0.382  1.00  0.00     0.006 C 
HETATM   17  C   LIG     1       0.780   1.413   0.247  1.00  0.00    -0.063 C 
HETATM   18  C   LIG     1       2.193   1.991   0.153  1.00  0.00     0.062 C 
HETATM   19  C   LIG     1       2.360   2.890  -1.083  1.00  0.00     0.236 C 
HETATM   20  N   LIG     1       1.322   3.940  -1.121  1.00  0.00    -0.075 N 
HETATM   21  C   LIG     1      -0.050   3.393  -1.109  1.00  0.00     0.236 C 
HETATM   22  C   LIG     1      -0.286   2.503   0.123  1.00  0.00     0.062 C 
HETATM   23  H   LIG     1       1.448   4.497  -1.954  1.00  0.00     0.277 HD
HETATM   24  H   LIG     1       1.437   4.535  -0.312  1.00  0.00     0.277 HD
ENDROOT
TORSDOF 0
