REMARK  4 active torsions:
REMARK  status: ('A' for Active; 'I' for Inactive)
REMARK    1  A    between atoms: C_2  and  O_3 
REMARK    2  A    between atoms: C_2  and  C_16 
REMARK    3  A    between atoms: O_3  and  C_4 
REMARK    4  A    between atoms: C_9  and  O_10 
ROOT
HETATM    1  C   LIG     1      -0.339   0.925   0.048  1.00  0.00     0.136 C 
HETATM    2  C   LIG     1      -0.864   2.348  -0.216  1.00  0.00     0.065 C 
HETATM    3  C   LIG     1      -2.404   2.419  -0.124  1.00  0.00     0.191 C 
HETATM    4  N   LIG     1      -3.015   1.452  -1.083  1.00  0.00    -0.060 N 
HETATM    5  C   LIG     1      -4.496   1.601  -1.102  1.00  0.00     0.267 C 
HETATM    6  C   LIG     1      -5.088   1.258   0.292  1.00  0.00     0.148 C 
HETATM    7  C   LIG     1      -3.938   0.952   1.281  1.00  0.00     0.020 C 
HETATM    8  C   LIG     1      -2.958   2.151   1.308  1.00  0.00     0.040 C 
HETATM    9  C   LIG     1      -3.171  -0.268   0.719  1.00  0.00     0.040 C 
HETATM   10  C   LIG     1      -2.622   0.062  -0.703  1.00  0.00     0.191 C 
HETATM   11  C   LIG     1      -1.092  -0.101  -0.823  1.00  0.00     0.065 C 
HETATM   12  H   LIG     1      -2.663   1.648  -2.009  1.00  0.00     0.281 HD
ENDROOT
BRANCH   1  13
HETATM   13  O   LIG     1       1.054   0.894  -0.237  1.00  0.00    -0.312 OA
BRANCH  13  14
HETATM   14  C   LIG     1       1.878   0.028   0.398  1.00  0.00     0.296 C 
HETATM   15  O   LIG     1       1.481  -0.783   1.236  1.00  0.00    -0.259 OA
BRANCH  14  16
HETATM   16  C   LIG     1       3.269   0.154  -0.019  1.00  0.00     0.067 A 
HETATM   17  C   LIG     1       4.423  -0.590   0.423  1.00  0.00     0.008 A 
HETATM   18  C   LIG     1       5.564  -0.099  -0.279  1.00  0.00     0.043 A 
HETATM   19  C   LIG     1       4.643  -1.639   1.349  1.00  0.00     0.015 A 
HETATM   20  N   LIG     1       5.092   0.901  -1.105  1.00  0.00    -0.364 N 
HETATM   21  C   LIG     1       6.854  -0.621  -0.072  1.00  0.00     0.030 A 
HETATM   22  C   LIG     1       3.726   1.054  -0.953  1.00  0.00     0.107 A 
HETATM   23  H   LIG     1       5.645   1.458  -1.741  1.00  0.00     0.165 HD
HETATM   24  C   LIG     1       7.037  -1.663   0.856  1.00  0.00     0.002 A 
HETATM   25  C   LIG     1       5.931  -2.170   1.565  1.00  0.00     0.001 A 
ENDBRANCH  14  16
ENDBRANCH  13  14
ENDBRANCH   1  13
BRANCH   6  26
HETATM   26  O   LIG     1      -5.891   2.320   0.766  1.00  0.00    -0.394 OA
HETATM   27  H   LIG     1      -6.279   2.063   1.589  1.00  0.00     0.210 HD
ENDBRANCH   6  26
TORSDOF 4
