REMARK  6 active torsions:
REMARK  status: ('A' for Active; 'I' for Inactive)
REMARK    1  A    between atoms: O_1  and  C_2 
REMARK    2  A    between atoms: C_2  and  C_3 
REMARK    3  A    between atoms: C_2  and  C_11 
REMARK    4  A    between atoms: C_5  and  O_6 
REMARK    5  A    between atoms: C_7  and  O_8 
REMARK    6  A    between atoms: C_11  and  N_12 
ROOT
HETATM    1  C   LIG     1       0.026  -0.073   0.610  1.00  0.00    -0.025 A 
HETATM    2  C   LIG     1      -1.041  -0.606  -0.148  1.00  0.00     0.049 A 
HETATM    3  C   LIG     1      -2.218   0.143  -0.344  1.00  0.00     0.099 A 
HETATM    4  C   LIG     1      -2.333   1.431   0.218  1.00  0.00     0.098 A 
HETATM    5  C   LIG     1      -1.273   1.966   0.974  1.00  0.00     0.040 A 
HETATM    6  C   LIG     1      -0.097   1.217   1.169  1.00  0.00     0.012 A 
ENDROOT
BRANCH   1   7
HETATM    7  C   LIG     1       1.303  -0.876   0.816  1.00  0.00     0.176 C 
BRANCH   7   8
HETATM    8  O   LIG     1       1.036  -2.195   1.244  1.00  0.00    -0.389 OA
HETATM    9  H   LIG     1       0.586  -2.158   2.075  1.00  0.00     0.210 HD
ENDBRANCH   7   8
BRANCH   7  10
HETATM   10  C   LIG     1       2.161  -0.953  -0.461  1.00  0.00     0.265 C 
BRANCH  10  11
HETATM   11  N   LIG     1       2.588   0.381  -0.921  1.00  0.00    -0.077 N 
HETATM   12  H   LIG     1       3.138   0.288  -1.763  1.00  0.00     0.274 HD
HETATM   13  H   LIG     1       1.773   0.946  -1.113  1.00  0.00     0.274 HD
HETATM   14  H   LIG     1       3.144   0.826  -0.204  1.00  0.00     0.274 HD
ENDBRANCH  10  11
ENDBRANCH   7  10
ENDBRANCH   1   7
BRANCH   3  15
HETATM   15  O   LIG     1      -3.245  -0.380  -1.077  1.00  0.00    -0.358 OA
HETATM   16  H   LIG     1      -3.072  -1.254  -1.393  1.00  0.00     0.217 HD
ENDBRANCH   3  15
BRANCH   4  17
HETATM   17  O   LIG     1      -3.471   2.160   0.029  1.00  0.00    -0.358 OA
HETATM   18  H   LIG     1      -4.104   1.686  -0.488  1.00  0.00     0.217 HD
ENDBRANCH   4  17
TORSDOF 6
