REMARK  4 active torsions:
REMARK  status: ('A' for Active; 'I' for Inactive)
REMARK    1  A    between atoms: C_3  and  N_4 
REMARK    2  A    between atoms: N_7  and  C_15 
REMARK    3  A    between atoms: C_9  and  C_12 
REMARK    4  A    between atoms: C_20  and  N_21 
ROOT
HETATM    1  F   LIG     1      -1.444   2.638  -0.189  1.00  0.00    -0.201 F 
HETATM    2  C   LIG     1      -0.236   2.028  -0.082  1.00  0.00     0.173 A 
HETATM    3  C   LIG     1       0.928   2.818  -0.003  1.00  0.00     0.083 A 
HETATM    4  C   LIG     1       2.202   2.196   0.090  1.00  0.00     0.070 A 
HETATM    5  C   LIG     1       2.283   0.775   0.150  1.00  0.00     0.092 A 
HETATM    6  N   LIG     1       3.605   0.150   0.324  1.00  0.00    -0.351 N 
HETATM    7  C   LIG     1       4.713   0.778   0.072  1.00  0.00     0.088 C 
HETATM    8  C   LIG     1       4.737   2.224  -0.335  1.00  0.00     0.200 C 
HETATM    9  C   LIG     1       3.481   2.976   0.138  1.00  0.00     0.183 C 
HETATM   10  O   LIG     1       3.583   4.145   0.509  1.00  0.00    -0.291 OA
HETATM   11  C   LIG     1       1.103  -0.007   0.031  1.00  0.00     0.173 A 
HETATM   12  F   LIG     1       1.173  -1.360   0.026  1.00  0.00    -0.201 F 
HETATM   13  C   LIG     1      -0.163   0.619  -0.084  1.00  0.00     0.113 A 
ENDROOT
BRANCH  13  14
HETATM   14  N   LIG     1      -1.361  -0.114  -0.197  1.00  0.00    -0.372 N 
HETATM   15  C   LIG     1      -1.397  -1.332  -0.998  1.00  0.00     0.155 C 
HETATM   16  C   LIG     1      -2.842  -1.649  -1.431  1.00  0.00     0.200 C 
HETATM   17  N   LIG     1      -3.741  -1.659  -0.252  1.00  0.00    -0.064 N 
HETATM   18  C   LIG     1      -2.931  -2.981  -2.186  1.00  0.00     0.041 C 
HETATM   19  C   LIG     1      -3.699  -0.405   0.538  1.00  0.00     0.200 C 
HETATM   20  H   LIG     1      -4.688  -1.816  -0.565  1.00  0.00     0.278 HD
HETATM   21  H   LIG     1      -3.465  -2.421   0.349  1.00  0.00     0.278 HD
HETATM   22  C   LIG     1      -2.251  -0.078   0.958  1.00  0.00     0.155 C 
HETATM   23  C   LIG     1      -4.635  -0.501   1.749  1.00  0.00     0.041 C 
ENDBRANCH  13  14
BRANCH   3  24
HETATM   24  N   LIG     1       0.770   4.206  -0.044  1.00  0.00    -0.396 N 
HETATM   25  H   LIG     1      -0.148   4.629  -0.071  1.00  0.00     0.156 HD
HETATM   26  H   LIG     1       1.560   4.828   0.069  1.00  0.00     0.156 HD
ENDBRANCH   3  24
BRANCH   6  27
HETATM   27  C   LIG     1       3.710  -1.246   0.828  1.00  0.00     0.089 A 
HETATM   28  C   LIG     1       4.603  -1.487   2.035  1.00  0.00     0.028 A 
HETATM   29  C   LIG     1       3.104  -1.480   2.198  1.00  0.00     0.028 A 
ENDBRANCH   6  27
BRANCH   8  30
HETATM   30  C   LIG     1       4.871   2.325  -1.862  1.00  0.00     0.190 C 
HETATM   31  O   LIG     1       3.969   1.825  -2.573  1.00  0.00    -0.647 OA
HETATM   32  O   LIG     1       5.899   2.889  -2.293  1.00  0.00    -0.647 OA
ENDBRANCH   8  30
TORSDOF 4
