REMARK  8 active torsions:
REMARK  status: ('A' for Active; 'I' for Inactive)
REMARK    1  A    between atoms: C_5  and  C_8 
REMARK    2  A    between atoms: C_8  and  N_9 
REMARK    3  A    between atoms: C_17  and  N_18 
REMARK    4  A    between atoms: N_18  and  C_19 
REMARK    5  A    between atoms: N_22  and  C_25 
REMARK    6  A    between atoms: C_25  and  C_26 
REMARK    7  A    between atoms: C_26  and  C_27 
REMARK    8  A    between atoms: C_30  and  O_31 
ROOT
HETATM    1  N   LIG     1      -2.762   0.326  -1.853  1.00  0.00    -0.219 N 
HETATM    2  H   LIG     1      -3.626   0.399  -2.371  1.00  0.00     0.178 HD
ENDROOT
BRANCH   1   3
HETATM    3  C   LIG     1      -2.920   0.767  -0.541  1.00  0.00     0.704 A 
HETATM    4  N   LIG     1      -4.137   1.214  -0.147  1.00  0.00    -0.175 N 
HETATM    5  C   LIG     1      -3.983   1.567   1.190  1.00  0.00     0.081 A 
HETATM    6  C   LIG     1      -2.618   1.288   1.486  1.00  0.00     0.103 A 
HETATM    7  C   LIG     1      -4.855   2.086   2.168  1.00  0.00     0.032 A 
HETATM    8  C   LIG     1      -2.147   1.546   2.793  1.00  0.00     0.034 A 
HETATM    9  N   LIG     1      -1.961   0.784   0.381  1.00  0.00    -0.063 NA
HETATM   10  C   LIG     1      -3.016   2.067   3.775  1.00  0.00     0.002 A 
HETATM   11  C   LIG     1      -4.364   2.335   3.464  1.00  0.00     0.002 A 
BRANCH   4  12
HETATM   12  C   LIG     1      -5.361   1.303  -0.932  1.00  0.00     0.186 C 
BRANCH  12  13
HETATM   13  C   LIG     1      -6.020  -0.057  -1.083  1.00  0.00    -0.039 A 
HETATM   14  C   LIG     1      -6.609  -0.685   0.034  1.00  0.00     0.012 A 
HETATM   15  C   LIG     1      -7.214  -1.950  -0.102  1.00  0.00     0.043 A 
HETATM   16  C   LIG     1      -7.234  -2.591  -1.356  1.00  0.00     0.116 A 
HETATM   17  F   LIG     1      -7.814  -3.807  -1.486  1.00  0.00    -0.206 F 
HETATM   18  C   LIG     1      -6.649  -1.965  -2.474  1.00  0.00     0.043 A 
HETATM   19  C   LIG     1      -6.045  -0.700  -2.339  1.00  0.00     0.012 A 
ENDBRANCH  12  13
ENDBRANCH   4  12
ENDBRANCH   1   3
BRANCH   1  20
HETATM   20  C   LIG     1      -1.709  -0.252  -2.680  1.00  0.00     0.102 C 
HETATM   21  C   LIG     1      -1.261  -1.657  -2.237  1.00  0.00     0.053 C 
HETATM   22  C   LIG     1      -0.168  -1.644  -1.155  1.00  0.00     0.237 C 
HETATM   23  N   LIG     1       0.985  -0.793  -1.552  1.00  0.00    -0.071 N 
HETATM   24  C   LIG     1       0.570   0.607  -1.829  1.00  0.00     0.237 C 
HETATM   25  H   LIG     1       1.334  -1.158  -2.426  1.00  0.00     0.279 HD
HETATM   26  C   LIG     1      -0.507   0.679  -2.926  1.00  0.00     0.053 C 
BRANCH  23  27
HETATM   27  C   LIG     1       2.114  -0.856  -0.589  1.00  0.00     0.239 C 
BRANCH  27  28
HETATM   28  C   LIG     1       2.920  -2.163  -0.702  1.00  0.00     0.066 C 
BRANCH  28  29
HETATM   29  C   LIG     1       4.099  -2.184   0.251  1.00  0.00    -0.056 A 
HETATM   30  C   LIG     1       3.934  -2.646   1.572  1.00  0.00     0.010 A 
HETATM   31  C   LIG     1       5.029  -2.660   2.457  1.00  0.00     0.037 A 
HETATM   32  C   LIG     1       6.301  -2.217   2.041  1.00  0.00     0.068 A 
HETATM   33  C   LIG     1       6.461  -1.754   0.711  1.00  0.00     0.037 A 
HETATM   34  C   LIG     1       5.366  -1.738  -0.175  1.00  0.00     0.010 A 
BRANCH  32  35
HETATM   35  O   LIG     1       7.317  -2.266   2.972  1.00  0.00    -0.356 OA
HETATM   36  C   LIG     1       8.608  -1.827   2.576  1.00  0.00     0.210 C 
ENDBRANCH  32  35
ENDBRANCH  28  29
ENDBRANCH  27  28
ENDBRANCH  23  27
ENDBRANCH   1  20
TORSDOF 8
