REMARK  4 active torsions:
REMARK  status: ('A' for Active; 'I' for Inactive)
REMARK    1  A    between atoms: C_2  and  O_3 
REMARK    2  A    between atoms: C_2  and  C_16 
REMARK    3  A    between atoms: O_3  and  C_4 
REMARK    4  A    between atoms: C_12  and  C_13 
ROOT
HETATM    1  C   LIG     1       0.807  -0.862   1.013  1.00  0.00     0.150 C 
HETATM    2  C   LIG     1       1.899   0.066   1.610  1.00  0.00     0.067 C 
HETATM    3  C   LIG     1       2.818   0.699   0.536  1.00  0.00     0.191 C 
HETATM    4  N   LIG     1       3.424  -0.407  -0.227  1.00  0.00    -0.065 N 
HETATM    5  C   LIG     1       4.676  -0.067  -0.941  1.00  0.00     0.270 C 
HETATM    6  C   LIG     1       2.314  -0.852  -1.093  1.00  0.00     0.205 C 
HETATM    7  C   LIG     1       1.689   0.461  -1.605  1.00  0.00     0.036 C 
HETATM    8  C   LIG     1       2.029   1.498  -0.518  1.00  0.00     0.035 C 
HETATM    9  C   LIG     1       1.312  -1.673  -0.222  1.00  0.00     0.147 C 
HETATM   10  H   LIG     1       3.645  -1.171   0.399  1.00  0.00     0.280 HD
ENDROOT
BRANCH   1  11
HETATM   11  O   LIG     1      -0.337  -0.083   0.669  1.00  0.00    -0.311 OA
BRANCH  11  12
HETATM   12  C   LIG     1      -1.588  -0.590   0.756  1.00  0.00     0.293 C 
HETATM   13  O   LIG     1      -1.840  -1.734   1.136  1.00  0.00    -0.259 OA
BRANCH  12  14
HETATM   14  C   LIG     1      -2.636   0.384   0.335  1.00  0.00     0.039 A 
HETATM   15  C   LIG     1      -3.997   0.002   0.387  1.00  0.00     0.017 A 
HETATM   16  C   LIG     1      -5.010   0.899  -0.005  1.00  0.00     0.001 A 
HETATM   17  C   LIG     1      -4.674   2.189  -0.455  1.00  0.00     0.000 A 
HETATM   18  C   LIG     1      -3.324   2.581  -0.512  1.00  0.00     0.001 A 
HETATM   19  C   LIG     1      -2.310   1.686  -0.120  1.00  0.00     0.017 A 
ENDBRANCH  12  14
ENDBRANCH  11  12
ENDBRANCH   1  11
BRANCH   9  20
HETATM   20  C   LIG     1       1.889  -3.025   0.243  1.00  0.00     0.181 C 
HETATM   21  O   LIG     1       1.082  -3.837   0.743  1.00  0.00    -0.648 OA
HETATM   22  O   LIG     1       3.117  -3.227   0.109  1.00  0.00    -0.648 OA
ENDBRANCH   9  20
TORSDOF 4
