REMARK  5 active torsions:
REMARK  status: ('A' for Active; 'I' for Inactive)
REMARK    1  A    between atoms: C_5  and  C_6 
REMARK    2  A    between atoms: C_6  and  C_7 
REMARK    3  A    between atoms: C_6  and  C_12 
REMARK    4  A    between atoms: C_7  and  C_8 
REMARK    5  A    between atoms: C_8  and  N_9 
ROOT
HETATM    1  C   LIG     1      -0.019  -0.514   0.711  1.00  0.00     0.072 C 
ENDROOT
BRANCH   1   2
HETATM    2  C   LIG     1      -1.251  -1.398   0.527  1.00  0.00    -0.048 A 
HETATM    3  C   LIG     1      -1.882  -1.962   1.659  1.00  0.00     0.009 A 
HETATM    4  C   LIG     1      -3.018  -2.780   1.508  1.00  0.00     0.024 A 
HETATM    5  C   LIG     1      -3.534  -3.043   0.225  1.00  0.00     0.034 A 
HETATM    6 CL   LIG     1      -4.925  -4.046   0.040  1.00  0.00    -0.084 Cl
HETATM    7  C   LIG     1      -2.910  -2.487  -0.908  1.00  0.00     0.024 A 
HETATM    8  C   LIG     1      -1.774  -1.669  -0.758  1.00  0.00     0.009 A 
ENDBRANCH   1   2
BRANCH   1   9
HETATM    9  C   LIG     1      -0.135   0.843  -0.020  1.00  0.00     0.043 C 
BRANCH   9  10
HETATM   10  C   LIG     1       1.016   1.815   0.306  1.00  0.00     0.235 C 
BRANCH  10  11
HETATM   11  N   LIG     1       0.827   3.154  -0.308  1.00  0.00    -0.079 N 
HETATM   12  H   LIG     1      -0.138   3.410  -0.152  1.00  0.00     0.278 HD
HETATM   13  C   LIG     1       1.043   3.162  -1.774  1.00  0.00     0.269 C 
HETATM   14  C   LIG     1       1.639   4.192   0.364  1.00  0.00     0.269 C 
ENDBRANCH  10  11
ENDBRANCH   9  10
ENDBRANCH   1   9
BRANCH   1  15
HETATM   15  C   LIG     1       1.279  -1.248   0.387  1.00  0.00     0.042 A 
HETATM   16  C   LIG     1       2.238  -1.488   1.396  1.00  0.00     0.028 A 
HETATM   17  C   LIG     1       3.422  -2.167   1.053  1.00  0.00     0.003 A 
HETATM   18  C   LIG     1       3.606  -2.579  -0.280  1.00  0.00     0.019 A 
HETATM   19  C   LIG     1       2.592  -2.293  -1.215  1.00  0.00     0.117 A 
HETATM   20  N   LIG     1       1.454  -1.642  -0.896  1.00  0.00    -0.265 NA
ENDBRANCH   1  15
TORSDOF 5
