REMARK  4 active torsions:
REMARK  status: ('A' for Active; 'I' for Inactive)
REMARK    1  A    between atoms: O_1  and  C_2 
REMARK    2  A    between atoms: O_1  and  C_11 
REMARK    3  A    between atoms: C_3  and  C_8 
REMARK    4  A    between atoms: C_8  and  O_10 
ROOT
HETATM    1  C   LIG     1       0.666  -0.459  -0.157  1.00  0.00     0.096 A 
HETATM    2  C   LIG     1       1.764   0.446  -0.097  1.00  0.00     0.071 A 
HETATM    3  C   LIG     1       3.070  -0.073   0.061  1.00  0.00     0.021 A 
HETATM    4  C   LIG     1       3.294  -1.460   0.129  1.00  0.00     0.001 A 
HETATM    5  C   LIG     1       2.211  -2.351   0.039  1.00  0.00     0.003 A 
HETATM    6  C   LIG     1       0.904  -1.851  -0.107  1.00  0.00     0.038 A 
ENDROOT
BRANCH   1   7
HETATM    7  O   LIG     1      -0.630  -0.025  -0.303  1.00  0.00    -0.278 OA
BRANCH   7   8
HETATM    8  C   LIG     1      -1.438   0.038   0.776  1.00  0.00     0.260 C 
HETATM    9  O   LIG     1      -1.133  -0.251   1.934  1.00  0.00    -0.265 OA
HETATM   10  C   LIG     1      -2.834   0.534   0.424  1.00  0.00     0.126 C 
ENDBRANCH   7   8
ENDBRANCH   1   7
BRANCH   2  11
HETATM   11  C   LIG     1       1.588   1.940  -0.176  1.00  0.00     0.179 C 
HETATM   12  O   LIG     1       2.350   2.713   0.401  1.00  0.00    -0.646 OA
BRANCH  11  13
HETATM   13  O   LIG     1       0.593   2.359  -1.010  1.00  0.00    -0.773 OA
HETATM   14  H   LIG     1       0.595   3.297  -1.121  1.00  0.00     0.167 HD
ENDBRANCH  11  13
ENDBRANCH   2  11
TORSDOF 4
