REMARK  5 active torsions:
REMARK  status: ('A' for Active; 'I' for Inactive)
REMARK    1  A    between atoms: C_2  and  O_3 
REMARK    2  A    between atoms: C_2  and  C_17 
REMARK    3  A    between atoms: O_3  and  C_4 
REMARK    4  A    between atoms: C_12  and  C_13 
REMARK    5  A    between atoms: C_13  and  O_15 
ROOT
HETATM    1  C   LIG     1       1.360  -0.331  -1.188  1.00  0.00     0.149 C 
HETATM    2  C   LIG     1       1.286  -1.885  -1.188  1.00  0.00     0.066 C 
HETATM    3  C   LIG     1       1.794  -2.516   0.134  1.00  0.00     0.191 C 
HETATM    4  N   LIG     1       3.186  -2.068   0.323  1.00  0.00    -0.065 N 
HETATM    5  C   LIG     1       3.999  -2.922   1.220  1.00  0.00     0.270 C 
HETATM    6  C   LIG     1       3.016  -0.674   0.776  1.00  0.00     0.204 C 
HETATM    7  C   LIG     1       1.869  -0.745   1.804  1.00  0.00     0.036 C 
HETATM    8  C   LIG     1       1.054  -1.982   1.376  1.00  0.00     0.035 C 
HETATM    9  C   LIG     1       2.669   0.164  -0.491  1.00  0.00     0.146 C 
HETATM   10  H   LIG     1       3.651  -2.066  -0.573  1.00  0.00     0.280 HD
ENDROOT
BRANCH   1  11
HETATM   11  O   LIG     1       0.189   0.179  -0.549  1.00  0.00    -0.311 OA
BRANCH  11  12
HETATM   12  C   LIG     1      -0.935   0.449  -1.252  1.00  0.00     0.293 C 
HETATM   13  O   LIG     1      -1.047   0.253  -2.463  1.00  0.00    -0.259 OA
BRANCH  12  14
HETATM   14  C   LIG     1      -2.031   0.997  -0.402  1.00  0.00     0.039 A 
HETATM   15  C   LIG     1      -3.282   1.294  -0.992  1.00  0.00     0.017 A 
HETATM   16  C   LIG     1      -4.336   1.812  -0.216  1.00  0.00     0.001 A 
HETATM   17  C   LIG     1      -4.152   2.041   1.160  1.00  0.00     0.000 A 
HETATM   18  C   LIG     1      -2.913   1.751   1.759  1.00  0.00     0.001 A 
HETATM   19  C   LIG     1      -1.857   1.232   0.984  1.00  0.00     0.017 A 
ENDBRANCH  12  14
ENDBRANCH  11  12
ENDBRANCH   1  11
BRANCH   9  20
HETATM   20  C   LIG     1       2.761   1.688  -0.280  1.00  0.00     0.267 C 
HETATM   21  O   LIG     1       1.864   2.459  -0.624  1.00  0.00    -0.265 OA
BRANCH  20  22
HETATM   22  O   LIG     1       3.928   2.060   0.270  1.00  0.00    -0.326 OA
HETATM   23  C   LIG     1       4.179   3.433   0.517  1.00  0.00     0.213 C 
ENDBRANCH  20  22
ENDBRANCH   9  20
TORSDOF 5
