REMARK  10 active torsions:
REMARK  status: ('A' for Active; 'I' for Inactive)
REMARK    1  A    between atoms: C_8  and  N_9 
REMARK    2  A    between atoms: N_9  and  C_10 
REMARK    3  A    between atoms: C_10  and  C_11 
REMARK    4  A    between atoms: C_11  and  C_12 
REMARK    5  A    between atoms: C_12  and  N_13 
REMARK    6  A    between atoms: N_13  and  C_15 
REMARK    7  A    between atoms: C_15  and  C_16 
REMARK    8  A    between atoms: C_16  and  C_17 
REMARK    9  A    between atoms: C_20  and  O_21 
REMARK   10  A    between atoms: C_23  and  O_24 
ROOT
HETATM    1  N   LIG     1      -0.228  -1.814   0.339  1.00  0.00    -0.075 N 
HETATM    2  C   LIG     1      -0.203  -3.234   0.771  1.00  0.00     0.269 C 
HETATM    3  H   LIG     1      -0.473  -1.258   1.147  1.00  0.00     0.279 HD
ENDROOT
BRANCH   1   4
HETATM    4  C   LIG     1      -1.281  -1.546  -0.676  1.00  0.00     0.236 C 
BRANCH   4   5
HETATM    5  C   LIG     1      -2.703  -1.589  -0.087  1.00  0.00     0.047 C 
BRANCH   5   6
HETATM    6  C   LIG     1      -3.768  -1.158  -1.107  1.00  0.00     0.121 C 
BRANCH   6   7
HETATM    7  N   LIG     1      -5.103  -1.160  -0.526  1.00  0.00    -0.384 N 
HETATM    8  H   LIG     1      -5.622  -2.006  -0.715  1.00  0.00     0.159 HD
BRANCH   7   9
HETATM    9  C   LIG     1      -5.861  -0.117   0.006  1.00  0.00     0.121 A 
HETATM   10  C   LIG     1      -7.206  -0.267   0.151  1.00  0.00     0.085 A 
HETATM   11 CL   LIG     1      -8.015  -1.723  -0.319  1.00  0.00    -0.080 Cl
HETATM   12  C   LIG     1      -7.973   0.830   0.708  1.00  0.00     0.165 A 
HETATM   13  N   LIG     1      -7.424   1.937   1.072  1.00  0.00    -0.182 NA
HETATM   14  N   LIG     1      -6.063   2.066   0.924  1.00  0.00    -0.242 N 
HETATM   15  C   LIG     1      -5.204   1.139   0.435  1.00  0.00     0.289 A 
HETATM   16  H   LIG     1      -5.696   2.953   1.237  1.00  0.00     0.192 HD
HETATM   17  O   LIG     1      -3.998   1.380   0.394  1.00  0.00    -0.264 OA
ENDBRANCH   7   9
ENDBRANCH   6   7
ENDBRANCH   5   6
ENDBRANCH   4   5
ENDBRANCH   1   4
BRANCH   1  18
HETATM   18  C   LIG     1       1.109  -1.331  -0.101  1.00  0.00     0.239 C 
BRANCH  18  19
HETATM   19  C   LIG     1       2.075  -1.096   1.074  1.00  0.00     0.066 C 
BRANCH  19  20
HETATM   20  C   LIG     1       3.410  -0.547   0.607  1.00  0.00    -0.054 A 
HETATM   21  C   LIG     1       3.615   0.843   0.521  1.00  0.00     0.046 A 
HETATM   22  C   LIG     1       4.848   1.379   0.094  1.00  0.00     0.102 A 
HETATM   23  C   LIG     1       5.901   0.495  -0.289  1.00  0.00     0.101 A 
HETATM   24  C   LIG     1       5.681  -0.905  -0.194  1.00  0.00     0.040 A 
HETATM   25  C   LIG     1       4.451  -1.420   0.252  1.00  0.00     0.010 A 
BRANCH  22  26
HETATM   26  O   LIG     1       4.898   2.759   0.068  1.00  0.00    -0.353 OA
HETATM   27  C   LIG     1       6.151   3.419   0.165  1.00  0.00     0.210 C 
ENDBRANCH  22  26
BRANCH  23  28
HETATM   28  O   LIG     1       7.088   1.017  -0.765  1.00  0.00    -0.353 OA
HETATM   29  C   LIG     1       8.134   0.131  -1.138  1.00  0.00     0.210 C 
ENDBRANCH  23  28
ENDBRANCH  19  20
ENDBRANCH  18  19
ENDBRANCH   1  18
TORSDOF 10
