REMARK  2 active torsions:
REMARK  status: ('A' for Active; 'I' for Inactive)
REMARK    1  A    between atoms: C_2  and  O_3 
REMARK    2  A    between atoms: C_2  and  C_5 
ROOT
HETATM    1  C   LIG     1       0.770   0.313   0.007  1.00  0.00     0.044 C 
HETATM    2  C   LIG     1       1.617  -0.430  -0.743  1.00  0.00    -0.009 C 
HETATM    3  C   LIG     1       1.497  -1.951  -0.803  1.00  0.00     0.061 C 
HETATM    4  C   LIG     1       0.257  -2.459  -0.020  1.00  0.00     0.192 C 
HETATM    5  N   LIG     1       0.179  -1.688   1.239  1.00  0.00    -0.062 N 
HETATM    6  C   LIG     1      -0.596  -2.338   2.321  1.00  0.00     0.271 C 
HETATM    7  C   LIG     1      -0.353  -0.381   0.789  1.00  0.00     0.227 C 
HETATM    8  C   LIG     1      -1.489  -0.758  -0.177  1.00  0.00     0.040 C 
HETATM    9  C   LIG     1      -1.054  -2.115  -0.757  1.00  0.00     0.036 C 
HETATM   10  H   LIG     1       1.116  -1.550   1.591  1.00  0.00     0.280 HD
ENDROOT
BRANCH   1  11
HETATM   11  C   LIG     1       0.888   1.788   0.127  1.00  0.00     0.290 C 
HETATM   12  O   LIG     1       0.104   2.478   0.779  1.00  0.00    -0.260 OA
BRANCH  11  13
HETATM   13  O   LIG     1       1.937   2.292  -0.555  1.00  0.00    -0.323 OA
HETATM   14  C   LIG     1       2.181   3.688  -0.543  1.00  0.00     0.213 C 
ENDBRANCH  11  13
ENDBRANCH   1  11
TORSDOF 2
