REMARK  4 active torsions:
REMARK  status: ('A' for Active; 'I' for Inactive)
REMARK    1  A    between atoms: C_6  and  C_7 
REMARK    2  A    between atoms: C_7  and  C_8 
REMARK    3  A    between atoms: C_8  and  C_9 
REMARK    4  A    between atoms: C_8  and  C_15 
ROOT
HETATM    1  C   LIG     1       0.676  -0.387   0.058  1.00  0.00    -0.004 C 
ENDROOT
BRANCH   1   2
HETATM    2  C   LIG     1       1.183   0.855   0.863  1.00  0.00     0.038 C 
BRANCH   2   3
HETATM    3  C   LIG     1       0.759   2.269   0.393  1.00  0.00     0.186 C 
HETATM    4  N   LIG     1       1.439   3.288   1.229  1.00  0.00    -0.071 N 
HETATM    5  C   LIG     1       1.070   4.680   0.886  1.00  0.00     0.232 C 
HETATM    6  H   LIG     1       2.437   3.184   1.113  1.00  0.00     0.277 HD
HETATM    7  H   LIG     1       1.206   3.122   2.198  1.00  0.00     0.277 HD
HETATM    8  C   LIG     1       1.390   4.978  -0.587  1.00  0.00     0.027 C 
HETATM    9  C   LIG     1       0.698   3.965  -1.508  1.00  0.00     0.004 C 
HETATM   10  C   LIG     1       1.066   2.530  -1.099  1.00  0.00     0.033 C 
ENDBRANCH   2   3
ENDBRANCH   1   2
BRANCH   1  11
HETATM   11  C   LIG     1       1.293  -1.722   0.625  1.00  0.00    -0.010 C 
HETATM   12  C   LIG     1       0.860  -2.990  -0.158  1.00  0.00     0.005 C 
HETATM   13  C   LIG     1       1.497  -4.287   0.364  1.00  0.00     0.000 C 
HETATM   14  C   LIG     1       3.024  -4.198   0.366  1.00  0.00     0.000 C 
HETATM   15  C   LIG     1       3.472  -2.996   1.199  1.00  0.00     0.000 C 
HETATM   16  C   LIG     1       2.847  -1.690   0.683  1.00  0.00     0.005 C 
ENDBRANCH   1  11
BRANCH   1  17
HETATM   17  C   LIG     1      -0.886  -0.369  -0.078  1.00  0.00    -0.010 C 
HETATM   18  C   LIG     1      -1.433  -0.944  -1.408  1.00  0.00     0.005 C 
HETATM   19  C   LIG     1      -2.954  -0.745  -1.522  1.00  0.00     0.000 C 
HETATM   20  C   LIG     1      -3.687  -1.333  -0.306  1.00  0.00     0.000 C 
HETATM   21  C   LIG     1      -3.169  -0.718   1.003  1.00  0.00     0.000 C 
HETATM   22  C   LIG     1      -1.651  -0.913   1.152  1.00  0.00     0.005 C 
ENDBRANCH   1  17
TORSDOF 4
