REMARK  12 active torsions:
REMARK  status: ('A' for Active; 'I' for Inactive)
REMARK    1  A    between atoms: C_8  and  C_21 
REMARK    2  A    between atoms: C_12  and  C_17 
REMARK    3  A    between atoms: C_21  and  O_22 
REMARK    4  A    between atoms: C_21  and  C_23 
REMARK    5  A    between atoms: C_23  and  C_24 
REMARK    6  A    between atoms: C_24  and  N_25 
REMARK    7  A    between atoms: N_25  and  C_26 
REMARK    8  A    between atoms: N_25  and  C_30 
REMARK    9  A    between atoms: C_26  and  C_27 
REMARK   10  A    between atoms: C_27  and  C_28 
REMARK   11  A    between atoms: C_30  and  C_31 
REMARK   12  A    between atoms: C_31  and  C_32 
ROOT
HETATM    1 CL   LIG     1       8.109   3.609   0.318  1.00  0.00    -0.084 Cl
HETATM    2  C   LIG     1       6.634   2.939  -0.274  1.00  0.00     0.036 A 
HETATM    3  C   LIG     1       5.870   3.648  -1.213  1.00  0.00     0.048 A 
HETATM    4  C   LIG     1       4.668   3.105  -1.697  1.00  0.00     0.046 A 
HETATM    5 CL   LIG     1       3.774   4.031  -2.854  1.00  0.00    -0.083 Cl
HETATM    6  C   LIG     1       4.224   1.837  -1.240  1.00  0.00    -0.003 A 
HETATM    7  C   LIG     1       3.021   1.291  -1.730  1.00  0.00     0.024 A 
HETATM    8  C   LIG     1       2.551   0.030  -1.308  1.00  0.00    -0.018 A 
HETATM    9  C   LIG     1       3.296  -0.694  -0.338  1.00  0.00    -0.016 A 
HETATM   10  C   LIG     1       2.835  -1.946   0.144  1.00  0.00     0.014 A 
HETATM   11  C   LIG     1       3.564  -2.674   1.097  1.00  0.00     0.017 A 
HETATM   12  C   LIG     1       4.776  -2.166   1.595  1.00  0.00     0.048 A 
HETATM   13  C   LIG     1       5.239  -0.919   1.132  1.00  0.00     0.029 A 
HETATM   14  C   LIG     1       4.519  -0.162   0.170  1.00  0.00    -0.013 A 
HETATM   15  C   LIG     1       4.987   1.108  -0.286  1.00  0.00    -0.011 A 
HETATM   16  C   LIG     1       6.197   1.684   0.184  1.00  0.00     0.037 A 
ENDROOT
BRANCH   8  17
HETATM   17  C   LIG     1       1.238  -0.503  -1.897  1.00  0.00     0.153 C 
BRANCH  17  18
HETATM   18  O   LIG     1       0.953   0.013  -3.185  1.00  0.00    -0.391 OA
HETATM   19  H   LIG     1       0.212  -0.449  -3.546  1.00  0.00     0.210 HD
ENDBRANCH  17  18
BRANCH  17  20
HETATM   20  C   LIG     1       0.047  -0.201  -0.965  1.00  0.00     0.064 C 
BRANCH  20  21
HETATM   21  C   LIG     1      -1.239  -0.969  -1.331  1.00  0.00     0.237 C 
BRANCH  21  22
HETATM   22  N   LIG     1      -2.366  -0.657  -0.412  1.00  0.00    -0.071 N 
HETATM   23  H   LIG     1      -2.376   0.349  -0.329  1.00  0.00     0.279 HD
BRANCH  22  24
HETATM   24  C   LIG     1      -3.686  -1.017  -0.994  1.00  0.00     0.234 C 
BRANCH  24  25
HETATM   25  C   LIG     1      -4.853  -0.303  -0.288  1.00  0.00     0.027 C 
BRANCH  25  26
HETATM   26  C   LIG     1      -6.210  -0.621  -0.932  1.00  0.00    -0.003 C 
HETATM   27  C   LIG     1      -7.374   0.090  -0.232  1.00  0.00     0.005 C 
ENDBRANCH  25  26
ENDBRANCH  24  25
ENDBRANCH  22  24
BRANCH  22  28
HETATM   28  C   LIG     1      -2.167  -1.194   0.963  1.00  0.00     0.234 C 
BRANCH  28  29
HETATM   29  C   LIG     1      -2.032  -0.056   1.985  1.00  0.00     0.027 C 
BRANCH  29  30
HETATM   30  C   LIG     1      -1.812  -0.572   3.414  1.00  0.00    -0.003 C 
HETATM   31  C   LIG     1      -1.677   0.564   4.435  1.00  0.00     0.005 C 
ENDBRANCH  29  30
ENDBRANCH  28  29
ENDBRANCH  22  28
ENDBRANCH  21  22
ENDBRANCH  20  21
ENDBRANCH  17  20
ENDBRANCH   8  17
BRANCH  12  32
HETATM   32  C   LIG     1       5.588  -2.931   2.629  1.00  0.00     0.417 C 
HETATM   33  F   LIG     1       5.072  -4.137   2.875  1.00  0.00    -0.166 F 
HETATM   34  F   LIG     1       6.837  -3.088   2.193  1.00  0.00    -0.166 F 
HETATM   35  F   LIG     1       5.614  -2.241   3.769  1.00  0.00    -0.166 F 
ENDBRANCH  12  32
TORSDOF 12
