REMARK  8 active torsions:
REMARK  status: ('A' for Active; 'I' for Inactive)
REMARK    1  A    between atoms: S_1  and  N_4 
REMARK    2  A    between atoms: N_4  and  C_5 
REMARK    3  A    between atoms: C_8  and  S_9 
REMARK    4  A    between atoms: S_9  and  N_12 
REMARK    5  A    between atoms: N_12  and  C_14 
REMARK    6  A    between atoms: C_14  and  C_15 
REMARK    7  A    between atoms: C_15  and  N_16 
REMARK    8  A    between atoms: N_16  and  C_18 
ROOT
HETATM    1  N   LIG     1       0.680  -0.012  -4.123  1.00  0.00    -0.309 N 
HETATM    2  C   LIG     1       1.080   1.353  -4.494  1.00  0.00     0.163 C 
ENDROOT
BRANCH   1   3
HETATM    3  S   LIG     1       1.899  -1.112  -3.557  1.00  0.00     0.260 S 
HETATM    4  O   LIG     1       3.188  -0.706  -4.139  1.00  0.00    -0.200 OA
HETATM    5  O   LIG     1       1.391  -2.478  -3.761  1.00  0.00    -0.200 OA
BRANCH   3   6
HETATM    6  C   LIG     1       1.938  -0.784  -1.797  1.00  0.00     0.079 A 
HETATM    7  C   LIG     1       1.299  -1.674  -0.912  1.00  0.00     0.027 A 
HETATM    8  C   LIG     1       1.300  -1.408   0.470  1.00  0.00     0.031 A 
HETATM    9  C   LIG     1       1.932  -0.248   0.972  1.00  0.00     0.042 A 
HETATM   10  C   LIG     1       2.569   0.637   0.075  1.00  0.00     0.031 A 
HETATM   11  C   LIG     1       2.580   0.369  -1.308  1.00  0.00     0.027 A 
BRANCH   9  12
HETATM   12  N   LIG     1       1.945   0.056   2.338  1.00  0.00    -0.285 N 
HETATM   13  H   LIG     1       2.361   0.946   2.573  1.00  0.00     0.178 HD
BRANCH  12  14
HETATM   14  S   LIG     1       1.483  -0.922   3.696  1.00  0.00     0.227 S 
HETATM   15  O   LIG     1       0.141  -1.450   3.409  1.00  0.00    -0.206 OA
HETATM   16  O   LIG     1       1.728  -0.090   4.883  1.00  0.00    -0.206 OA
HETATM   17  C   LIG     1       2.708  -2.291   3.652  1.00  0.00     0.186 C 
ENDBRANCH  12  14
ENDBRANCH   9  12
ENDBRANCH   3   6
ENDBRANCH   1   3
BRANCH   1  18
HETATM   18  C   LIG     1      -0.687  -0.162  -3.591  1.00  0.00     0.155 C 
BRANCH  18  19
HETATM   19  C   LIG     1      -1.007   0.894  -2.508  1.00  0.00     0.161 C 
BRANCH  19  20
HETATM   20  N   LIG     1      -2.133   0.536  -1.648  1.00  0.00    -0.218 N 
HETATM   21  C   LIG     1      -3.350   0.380  -2.439  1.00  0.00     0.169 C 
BRANCH  20  22
HETATM   22  C   LIG     1      -2.068   0.593  -0.249  1.00  0.00     0.705 A 
HETATM   23  N   LIG     1      -2.849  -0.195   0.539  1.00  0.00    -0.184 N 
HETATM   24  C   LIG     1      -2.557   0.187   1.846  1.00  0.00     0.080 A 
HETATM   25  C   LIG     1      -3.787  -1.237   0.154  1.00  0.00     0.175 C 
HETATM   26  C   LIG     1      -1.556   1.192   1.720  1.00  0.00     0.103 A 
HETATM   27  C   LIG     1      -3.034  -0.217   3.108  1.00  0.00     0.032 A 
HETATM   28  N   LIG     1      -1.247   1.423   0.396  1.00  0.00    -0.062 NA
HETATM   29  C   LIG     1      -1.047   1.788   2.896  1.00  0.00     0.034 A 
HETATM   30  C   LIG     1      -1.524   1.389   4.162  1.00  0.00     0.002 A 
HETATM   31  C   LIG     1      -2.514   0.390   4.268  1.00  0.00     0.002 A 
ENDBRANCH  20  22
ENDBRANCH  19  20
ENDBRANCH  18  19
ENDBRANCH   1  18
TORSDOF 8
