REMARK  7 active torsions:
REMARK  status: ('A' for Active; 'I' for Inactive)
REMARK    1  A    between atoms: N_2  and  C_4 
REMARK    2  A    between atoms: C_8  and  C_10 
REMARK    3  A    between atoms: C_11  and  C_23 
REMARK    4  A    between atoms: C_16  and  C_17 
REMARK    5  A    between atoms: C_17  and  O_19 
REMARK    6  A    between atoms: O_19  and  C_20 
REMARK    7  A    between atoms: C_23  and  O_25 
ROOT
HETATM    1  C   LIG     1       0.071  -0.902  -0.276  1.00  0.00     0.101 A 
HETATM    2  C   LIG     1      -1.379  -1.412  -0.168  1.00  0.00     0.052 A 
HETATM    3  C   LIG     1      -1.697  -2.470   0.621  1.00  0.00     0.018 A 
HETATM    4  N   LIG     1      -0.726  -3.148   1.340  1.00  0.00    -0.362 N 
HETATM    5  C   LIG     1       0.623  -2.846   1.244  1.00  0.00     0.018 A 
HETATM    6  C   LIG     1       1.498  -3.808   2.035  1.00  0.00     0.069 C 
HETATM    7  C   LIG     1       1.059  -1.807   0.487  1.00  0.00     0.052 A 
HETATM    8  C   LIG     1      -3.087  -3.065   0.805  1.00  0.00     0.069 C 
HETATM    9  H   LIG     1      -1.006  -3.937   1.905  1.00  0.00     0.165 HD
ENDROOT
BRANCH   1  10
HETATM   10  C   LIG     1       0.199   0.566   0.134  1.00  0.00    -0.042 A 
HETATM   11  C   LIG     1       0.611   1.538  -0.803  1.00  0.00     0.008 A 
HETATM   12  C   LIG     1       0.726   2.885  -0.417  1.00  0.00     0.003 A 
HETATM   13  C   LIG     1       0.431   3.270   0.904  1.00  0.00     0.036 A 
HETATM   14  C   LIG     1       0.017   2.310   1.857  1.00  0.00     0.103 A 
HETATM   15  C   LIG     1      -0.095   0.958   1.458  1.00  0.00     0.044 A 
BRANCH  14  16
HETATM   16  N   LIG     1      -0.292   2.711   3.244  1.00  0.00    -0.116 N 
HETATM   17  O   LIG     1      -0.647   1.843   4.035  1.00  0.00    -0.532 OA
HETATM   18  O   LIG     1      -0.181   3.895   3.545  1.00  0.00    -0.532 OA
ENDBRANCH  14  16
ENDBRANCH   1  10
BRANCH   7  19
HETATM   19  C   LIG     1       2.512  -1.476   0.372  1.00  0.00     0.292 C 
HETATM   20  O   LIG     1       3.354  -1.721   1.238  1.00  0.00    -0.259 OA
BRANCH  19  21
HETATM   21  O   LIG     1       2.802  -0.837  -0.783  1.00  0.00    -0.318 OA
BRANCH  21  22
HETATM   22  C   LIG     1       4.124  -0.401  -1.066  1.00  0.00     0.174 C 
HETATM   23  C   LIG     1       4.950  -1.529  -1.697  1.00  0.00     0.034 C 
ENDBRANCH  21  22
ENDBRANCH  19  21
ENDBRANCH   7  19
BRANCH   2  24
HETATM   24  C   LIG     1      -2.418  -0.678  -0.952  1.00  0.00     0.291 C 
HETATM   25  O   LIG     1      -3.605  -0.591  -0.629  1.00  0.00    -0.260 OA
BRANCH  24  26
HETATM   26  O   LIG     1      -1.906  -0.077  -2.045  1.00  0.00    -0.323 OA
HETATM   27  C   LIG     1      -2.743   0.703  -2.881  1.00  0.00     0.213 C 
ENDBRANCH  24  26
ENDBRANCH   2  24
TORSDOF 7
