REMARK  11 active torsions:
REMARK  status: ('A' for Active; 'I' for Inactive)
REMARK    1  A    between atoms: O_1  and  C_2 
REMARK    2  A    between atoms: C_2  and  C_3 
REMARK    3  A    between atoms: C_2  and  C_18 
REMARK    4  A    between atoms: C_3  and  O_4 
REMARK    5  A    between atoms: O_4  and  C_5 
REMARK    6  A    between atoms: C_18  and  N_19 
REMARK    7  A    between atoms: N_19  and  C_20 
REMARK    8  A    between atoms: C_20  and  C_21 
REMARK    9  A    between atoms: C_21  and  O_22 
REMARK   10  A    between atoms: O_22  and  C_23 
REMARK   11  A    between atoms: C_28  and  O_29 
ROOT
HETATM    1  C   LIG     1       1.119  -1.148  -1.109  1.00  0.00     0.168 C 
ENDROOT
BRANCH   1   2
HETATM    2  O   LIG     1       1.325  -0.193  -2.133  1.00  0.00    -0.392 OA
HETATM    3  H   LIG     1       0.494   0.041  -2.516  1.00  0.00     0.210 HD
ENDBRANCH   1   2
BRANCH   1   4
HETATM    4  C   LIG     1       2.432  -1.919  -0.890  1.00  0.00     0.208 C 
BRANCH   4   5
HETATM    5  O   LIG     1       3.339  -1.119  -0.140  1.00  0.00    -0.352 OA
BRANCH   5   6
HETATM    6  C   LIG     1       4.578  -1.648   0.140  1.00  0.00     0.061 C 
HETATM    7  C   LIG     1       5.483  -0.688   0.906  1.00  0.00     0.130 C 
HETATM    8  C   LIG     1       6.944  -0.958   0.588  1.00  0.00     0.050 C 
HETATM    9  C   LIG     1       5.485   0.776   0.617  1.00  0.00    -0.013 A 
HETATM   10  C   LIG     1       7.336  -2.371   0.438  1.00  0.00     0.028 C 
HETATM   11  N   LIG     1       7.676   0.064   0.378  1.00  0.00    -0.252 NA
HETATM   12  C   LIG     1       6.395  -3.275   0.084  1.00  0.00     0.004 C 
HETATM   13  C   LIG     1       5.018  -2.883  -0.207  1.00  0.00     0.033 C 
HETATM   14  C   LIG     1       6.803   1.154   0.371  1.00  0.00     0.064 A 
HETATM   15  C   LIG     1       7.122   2.499   0.115  1.00  0.00     0.032 A 
HETATM   16  C   LIG     1       6.075   3.450   0.118  1.00  0.00     0.002 A 
HETATM   17  C   LIG     1       4.739   3.055   0.373  1.00  0.00     0.001 A 
HETATM   18  C   LIG     1       4.428   1.702   0.633  1.00  0.00     0.011 A 
ENDBRANCH   5   6
ENDBRANCH   4   5
ENDBRANCH   1   4
BRANCH   1  19
HETATM   19  C   LIG     1       0.591  -0.477   0.172  1.00  0.00     0.266 C 
BRANCH  19  20
HETATM   20  N   LIG     1      -0.780   0.041  -0.006  1.00  0.00    -0.071 N 
HETATM   21  H   LIG     1      -0.768   0.730  -0.744  1.00  0.00     0.277 HD
HETATM   22  H   LIG     1      -1.383  -0.722  -0.284  1.00  0.00     0.277 HD
BRANCH  20  23
HETATM   23  C   LIG     1      -1.351   0.660   1.207  1.00  0.00     0.259 C 
BRANCH  23  24
HETATM   24  C   LIG     1      -2.777   1.161   0.952  1.00  0.00     0.203 C 
BRANCH  24  25
HETATM   25  O   LIG     1      -3.607   0.033   0.713  1.00  0.00    -0.347 OA
BRANCH  25  26
HETATM   26  C   LIG     1      -4.943   0.241   0.438  1.00  0.00     0.102 A 
HETATM   27  C   LIG     1      -5.723  -0.905   0.161  1.00  0.00     0.101 A 
HETATM   28  C   LIG     1      -7.104  -0.757  -0.129  1.00  0.00     0.039 A 
HETATM   29  C   LIG     1      -7.698   0.518  -0.142  1.00  0.00     0.003 A 
HETATM   30  C   LIG     1      -6.922   1.657   0.134  1.00  0.00     0.003 A 
HETATM   31  C   LIG     1      -5.552   1.522   0.422  1.00  0.00     0.039 A 
BRANCH  27  32
HETATM   32  O   LIG     1      -5.075  -2.123   0.189  1.00  0.00    -0.353 OA
HETATM   33  C   LIG     1      -5.832  -3.295  -0.079  1.00  0.00     0.210 C 
ENDBRANCH  27  32
ENDBRANCH  25  26
ENDBRANCH  24  25
ENDBRANCH  23  24
ENDBRANCH  20  23
ENDBRANCH  19  20
ENDBRANCH   1  19
TORSDOF 11
