REMARK  7 active torsions:
REMARK  status: ('A' for Active; 'I' for Inactive)
REMARK    1  A    between atoms: S_1  and  N_4 
REMARK    2  A    between atoms: N_4  and  C_5 
REMARK    3  A    between atoms: C_8  and  C_9 
REMARK    4  A    between atoms: C_9  and  O_10 
REMARK    5  A    between atoms: C_9  and  C_11 
REMARK    6  A    between atoms: C_11  and  N_12 
REMARK    7  A    between atoms: N_12  and  C_13 
ROOT
HETATM    1  C   LIG     1      -2.596  -0.208   0.542  1.00  0.00     0.042 A 
HETATM    2  C   LIG     1      -2.039  -0.491  -0.724  1.00  0.00     0.031 A 
HETATM    3  C   LIG     1      -0.742  -0.047  -1.047  1.00  0.00     0.012 A 
HETATM    4  C   LIG     1       0.014   0.688  -0.110  1.00  0.00    -0.028 A 
HETATM    5  C   LIG     1      -0.541   0.969   1.157  1.00  0.00     0.012 A 
HETATM    6  C   LIG     1      -1.839   0.525   1.478  1.00  0.00     0.031 A 
ENDROOT
BRANCH   4   7
HETATM    7  C   LIG     1       1.418   1.157  -0.464  1.00  0.00     0.179 C 
BRANCH   7   8
HETATM    8  O   LIG     1       1.630   2.502  -0.088  1.00  0.00    -0.389 OA
HETATM    9  H   LIG     1       2.537   2.711  -0.255  1.00  0.00     0.210 HD
ENDBRANCH   7   8
BRANCH   7  10
HETATM   10  C   LIG     1       2.486   0.297   0.233  1.00  0.00     0.306 C 
BRANCH  10  11
HETATM   11  N   LIG     1       3.821   0.577  -0.301  1.00  0.00     0.090 N 
HETATM   12  H   LIG     1       3.805   0.499  -1.313  1.00  0.00     0.316 HD
BRANCH  11  13
HETATM   13  C   LIG     1       4.898  -0.261   0.233  1.00  0.00     0.212 C 
HETATM   14  C   LIG     1       6.193   0.018  -0.541  1.00  0.00     0.042 C 
HETATM   15  C   LIG     1       5.105  -0.046   1.743  1.00  0.00     0.042 C 
ENDBRANCH  11  13
ENDBRANCH  10  11
ENDBRANCH   7  10
ENDBRANCH   4   7
BRANCH   1  16
HETATM   16  N   LIG     1      -3.880  -0.630   0.906  1.00  0.00    -0.285 N 
HETATM   17  H   LIG     1      -4.182  -0.338   1.824  1.00  0.00     0.178 HD
BRANCH  16  18
HETATM   18  S   LIG     1      -5.031  -1.579   0.018  1.00  0.00     0.227 S 
HETATM   19  O   LIG     1      -5.126  -0.985  -1.324  1.00  0.00    -0.206 OA
HETATM   20  O   LIG     1      -6.215  -1.674   0.885  1.00  0.00    -0.206 OA
HETATM   21  C   LIG     1      -4.226  -3.228  -0.083  1.00  0.00     0.186 C 
ENDBRANCH  16  18
ENDBRANCH   1  16
TORSDOF 7
