REMARK  7 active torsions:
REMARK  status: ('A' for Active; 'I' for Inactive)
REMARK    1  A    between atoms: C_3  and  C_4 
REMARK    2  A    between atoms: C_4  and  C_6 
REMARK    3  A    between atoms: C_6  and  C_8 
REMARK    4  A    between atoms: C_12  and  O_13 
REMARK    5  A    between atoms: O_13  and  C_14 
REMARK    6  A    between atoms: C_14  and  C_15 
REMARK    7  A    between atoms: C_15  and  O_17 
ROOT
HETATM    1 CL   LIG     1       0.252  -2.164   0.737  1.00  0.00    -0.081 Cl
HETATM    2  C   LIG     1       0.395  -0.447   0.536  1.00  0.00     0.072 A 
HETATM    3  C   LIG     1       1.558   0.136  -0.038  1.00  0.00     0.038 A 
HETATM    4  C   LIG     1       1.647   1.544  -0.132  1.00  0.00     0.020 A 
HETATM    5  C   LIG     1       0.597   2.361   0.319  1.00  0.00     0.039 A 
HETATM    6  C   LIG     1      -0.566   1.787   0.862  1.00  0.00     0.092 A 
HETATM    7  C   LIG     1      -0.660   0.382   0.987  1.00  0.00     0.090 A 
HETATM    8 CL   LIG     1      -2.060  -0.321   1.725  1.00  0.00    -0.080 Cl
ENDROOT
BRANCH   3   9
HETATM    9  C   LIG     1       2.695  -0.690  -0.542  1.00  0.00     0.189 C 
HETATM   10  O   LIG     1       2.504  -1.681  -1.248  1.00  0.00    -0.287 OA
BRANCH   9  11
HETATM   11  C   LIG     1       4.067  -0.272  -0.166  1.00  0.00    -0.017 C 
HETATM   12  C   LIG     1       5.040  -0.350  -1.095  1.00  0.00     0.023 C 
BRANCH  11  13
HETATM   13  C   LIG     1       4.282   0.204   1.272  1.00  0.00     0.037 C 
HETATM   14  C   LIG     1       5.704  -0.015   1.812  1.00  0.00     0.010 C 
ENDBRANCH  11  13
ENDBRANCH   9  11
ENDBRANCH   3   9
BRANCH   6  15
HETATM   15  O   LIG     1      -1.572   2.615   1.297  1.00  0.00    -0.339 OA
BRANCH  15  16
HETATM   16  C   LIG     1      -2.719   2.667   0.450  1.00  0.00     0.285 C 
BRANCH  16  17
HETATM   17  C   LIG     1      -2.623   3.861  -0.503  1.00  0.00     0.164 C 
HETATM   18  O   LIG     1      -1.718   4.693  -0.473  1.00  0.00    -0.648 OA
BRANCH  17  19
HETATM   19  O   LIG     1      -3.670   3.879  -1.375  1.00  0.00    -0.775 OA
HETATM   20  H   LIG     1      -3.627   4.613  -1.969  1.00  0.00     0.167 HD
ENDBRANCH  17  19
ENDBRANCH  16  17
ENDBRANCH  15  16
ENDBRANCH   6  15
TORSDOF 7
