REMARK  10 active torsions:
REMARK  status: ('A' for Active; 'I' for Inactive)
REMARK    1  A    between atoms: C_4  and  C_11 
REMARK    2  A    between atoms: C_5  and  O_6 
REMARK    3  A    between atoms: C_9  and  N_10 
REMARK       I    between atoms: C_11  and  N_13 
REMARK    4  A    between atoms: N_13  and  C_14 
REMARK    5  A    between atoms: N_17  and  C_22 
REMARK    6  A    between atoms: C_19  and  O_20 
REMARK    7  A    between atoms: C_22  and  C_23 
REMARK    8  A    between atoms: C_23  and  C_24 
REMARK    9  A    between atoms: C_24  and  O_25 
REMARK   10  A    between atoms: O_25  and  C_26 
ROOT
HETATM    1  C   LIG     1       2.169   0.139   0.398  1.00  0.00     0.117 C 
HETATM    2  C   LIG     1       1.577   0.416   1.792  1.00  0.00     0.055 C 
HETATM    3  C   LIG     1       0.847   1.768   1.818  1.00  0.00     0.237 C 
HETATM    4  N   LIG     1      -0.212   1.825   0.777  1.00  0.00    -0.068 N 
HETATM    5  C   LIG     1       0.349   1.601  -0.584  1.00  0.00     0.268 C 
HETATM    6  C   LIG     1       1.071   0.240  -0.684  1.00  0.00     0.169 C 
HETATM    7  H   LIG     1      -0.838   1.056   0.972  1.00  0.00     0.280 HD
ENDROOT
BRANCH   1   8
HETATM    8  N   LIG     1       2.900  -1.131   0.351  1.00  0.00    -0.350 N 
HETATM    9  C   LIG     1       2.408  -2.370   0.519  1.00  0.00     0.254 C 
HETATM   10  O   LIG     1       1.218  -2.610   0.726  1.00  0.00    -0.268 OA
HETATM   11  H   LIG     1       3.892  -1.063   0.173  1.00  0.00     0.163 HD
BRANCH   9  12
HETATM   12  C   LIG     1       3.396  -3.494   0.359  1.00  0.00     0.067 A 
HETATM   13  C   LIG     1       2.989  -4.644  -0.353  1.00  0.00     0.046 A 
HETATM   14  C   LIG     1       3.860  -5.733  -0.531  1.00  0.00     0.061 A 
HETATM   15 CL   LIG     1       3.317  -7.113  -1.421  1.00  0.00    -0.082 Cl
HETATM   16  C   LIG     1       5.157  -5.685   0.018  1.00  0.00     0.050 A 
HETATM   17  C   LIG     1       5.567  -4.550   0.744  1.00  0.00     0.068 A 
HETATM   18  C   LIG     1       4.697  -3.445   0.932  1.00  0.00     0.086 A 
BRANCH  16  19
HETATM   19  N   LIG     1       6.043  -6.751  -0.145  1.00  0.00    -0.398 N 
HETATM   20  H   LIG     1       6.955  -6.755   0.288  1.00  0.00     0.156 HD
HETATM   21  H   LIG     1       5.758  -7.598  -0.618  1.00  0.00     0.156 HD
ENDBRANCH  16  19
BRANCH  18  22
HETATM   22  O   LIG     1       5.058  -2.328   1.663  1.00  0.00    -0.355 OA
HETATM   23  C   LIG     1       6.353  -2.279   2.244  1.00  0.00     0.210 C 
ENDBRANCH  18  22
ENDBRANCH   9  12
ENDBRANCH   1   8
BRANCH   6  24
HETATM   24  O   LIG     1       1.702   0.120  -1.953  1.00  0.00    -0.387 OA
HETATM   25  C   LIG     1       0.847  -0.345  -2.985  1.00  0.00     0.202 C 
ENDBRANCH   6  24
BRANCH   4  26
HETATM   26  C   LIG     1      -1.028   3.063   0.877  1.00  0.00     0.237 C 
BRANCH  26  27
HETATM   27  C   LIG     1      -2.418   2.909   0.236  1.00  0.00     0.054 C 
BRANCH  27  28
HETATM   28  C   LIG     1      -3.293   4.152   0.431  1.00  0.00     0.177 C 
BRANCH  28  29
HETATM   29  O   LIG     1      -4.551   3.920  -0.186  1.00  0.00    -0.351 OA
BRANCH  29  30
HETATM   30  C   LIG     1      -5.500   4.918  -0.132  1.00  0.00     0.068 A 
HETATM   31  C   LIG     1      -6.739   4.657  -0.754  1.00  0.00     0.040 A 
HETATM   32  C   LIG     1      -7.767   5.620  -0.747  1.00  0.00     0.045 A 
HETATM   33  C   LIG     1      -7.565   6.860  -0.114  1.00  0.00     0.116 A 
HETATM   34  C   LIG     1      -6.334   7.135   0.510  1.00  0.00     0.045 A 
HETATM   35  F   LIG     1      -8.551   7.787  -0.107  1.00  0.00    -0.206 F 
HETATM   36  C   LIG     1      -5.306   6.171   0.504  1.00  0.00     0.040 A 
ENDBRANCH  29  30
ENDBRANCH  28  29
ENDBRANCH  27  28
ENDBRANCH  26  27
ENDBRANCH   4  26
TORSDOF 10
