@<TRIPOS>MOLECULE
HER_0000001.pdb
 53 53 0 0 0
SMALL
GASTEIGER

@<TRIPOS>ATOM
      1  S          0.4010    0.1790   -0.7480 S.O     1  LIG1        0.0221
      2  O          1.1990    0.9970   -1.7200 O.2     1  LIG1       -0.2572
      3  C         -0.5580    1.3340    0.2880 C.3     1  LIG1        0.0231
      4  C         -1.6600    1.9940   -0.5310 C.3     1  LIG1       -0.0445
      5  C         -2.4870    2.9450    0.3190 C.3     1  LIG1       -0.0645
      6  C          1.5480   -0.3440    0.5700 C.3     1  LIG1        0.0217
      7  C          2.5840   -1.3120    0.0060 C.3     1  LIG1       -0.0566
      8  C          3.6060   -1.6970    1.0720 C.3     1  LIG1       -0.0897
      9  N          4.6380   -2.6360    0.4850 N.4     1  LIG1        0.3813
     10  C          4.1800   -4.0740    0.4270 C.3     1  LIG1       -0.0934
     11  C          4.8330   -4.7890   -0.7430 C.3     1  LIG1       -0.0802
     12  C          6.0170   -2.4640    1.1190 C.3     1  LIG1       -0.0607
     13  C          6.7040   -1.3160    0.3710 C.3     1  LIG1        0.0746
     14  O          6.3090   -1.4370   -1.0140 O.3     1  LIG1       -0.3903
     15  C          8.2260   -1.3660    0.4900 C.3     1  LIG1        0.1136
     16  O          8.7230   -0.2270   -0.2180 O.3     1  LIG1       -0.4895
     17  C         10.0800   -0.0660   -0.2730 C.ar    1  LIG1        0.1207
     18  C         10.5040    1.0590   -0.9870 C.ar    1  LIG1       -0.0187
     19  C         11.8640    1.3440   -1.1270 C.ar    1  LIG1       -0.0409
     20  C         12.8150    0.5000   -0.5500 C.ar    1  LIG1        0.0520
     21  C         14.2120    0.7860   -0.6920 C.1     1  LIG1        0.0992
     22  N         15.3440    1.0170   -0.8060 N.1     1  LIG1       -0.1909
     23  C         12.3950   -0.6250    0.1670 C.ar    1  LIG1       -0.0409
     24  C         11.0310   -0.9080    0.3050 C.ar    1  LIG1       -0.0187
     25  H          0.1280    2.0860    0.6930 H       1  LIG1        0.0401
     26  H         -0.9860    0.7630    1.1180 H       1  LIG1        0.0401
     27  H         -2.3200    1.2300   -0.9610 H       1  LIG1        0.0271
     28  H         -1.2270    2.5480   -1.3720 H       1  LIG1        0.0271
     29  H         -2.9660    2.4150    1.1480 H       1  LIG1        0.0230
     30  H         -3.2720    3.4090   -0.2860 H       1  LIG1        0.0230
     31  H         -1.8630    3.7430    0.7350 H       1  LIG1        0.0230
     32  H          0.9630   -0.8210    1.3620 H       1  LIG1        0.0400
     33  H          2.0340    0.5490    0.9760 H       1  LIG1        0.0400
     34  H          3.1040   -0.8500   -0.8430 H       1  LIG1        0.0256
     35  H          2.0770   -2.2020   -0.3860 H       1  LIG1        0.0256
     36  H          3.1510   -2.1980    1.9330 H       1  LIG1        0.0059
     37  H          4.1280   -0.8010    1.4240 H       1  LIG1        0.0059
     38  H          4.8320   -2.3110   -0.4910 H       1  LIG1       -0.0817
     39  H          3.0940   -4.0830    0.2970 H       1  LIG1        0.0056
     40  H          4.4220   -4.5420    1.3870 H       1  LIG1        0.0056
     41  H          4.5860   -4.2990   -1.6900 H       1  LIG1        0.0211
     42  H          4.4730   -5.8220   -0.7960 H       1  LIG1        0.0211
     43  H          5.9220   -4.8210   -0.6500 H       1  LIG1        0.0211
     44  H          6.5630   -3.3990    0.9660 H       1  LIG1        0.0085
     45  H          5.9030   -2.2850    2.1920 H       1  LIG1        0.0085
     46  H          6.3280   -0.3470    0.7150 H       1  LIG1        0.0608
     47  H          6.8900   -0.8220   -1.5100 H       1  LIG1        0.2098
     48  H          8.6050   -2.2820    0.0200 H       1  LIG1        0.0722
     49  H          8.5200   -1.3180    1.5450 H       1  LIG1        0.0722
     50  H          9.7680    1.7210   -1.4390 H       1  LIG1        0.0654
     51  H         12.1670    2.2260   -1.6880 H       1  LIG1        0.0631
     52  H         13.1240   -1.2930    0.6230 H       1  LIG1        0.0631
     53  H         10.7520   -1.7920    0.8700 H       1  LIG1        0.0654
@<TRIPOS>BOND
     1     1     2    2
     2     1     3    1
     3     1     6    1
     4     3     4    1
     5     3    25    1
     6     3    26    1
     7     4     5    1
     8     4    27    1
     9     4    28    1
    10     5    29    1
    11     5    30    1
    12     5    31    1
    13     6     7    1
    14     6    32    1
    15     6    33    1
    16     7     8    1
    17     7    34    1
    18     7    35    1
    19     8     9    1
    20     8    36    1
    21     8    37    1
    22     9    10    1
    23     9    12    1
    24     9    38    1
    25    10    11    1
    26    10    39    1
    27    10    40    1
    28    11    41    1
    29    11    42    1
    30    11    43    1
    31    12    13    1
    32    12    44    1
    33    12    45    1
    34    13    14    1
    35    13    15    1
    36    13    46    1
    37    14    47    1
    38    15    16    1
    39    15    48    1
    40    15    49    1
    41    16    17    1
    42    17    18   ar
    43    17    24   ar
    44    18    19   ar
    45    18    50    1
    46    19    20   ar
    47    19    51    1
    48    20    21    1
    49    20    23   ar
    50    21    22    3
    51    23    24   ar
    52    23    52    1
    53    24    53    1
